Feedly Feed Analysis Log - 2026-01-03 19:23:56
User request: Parse OPML file and analyze feed frequencies
Input file: feedly.opml
Output file: feedly_feeds.jsonl
============================================================

SUMMARY:
Total feeds processed: 0
