Feedly Feed Analysis Log - 2026-01-03 13:15:29
User request: Parse OPML file and analyze feed frequencies
Input file: ./feedly.opml
Output file: ./feedly_feeds.jsonl
============================================================

Processing feed 1/1263: NewsPeppermint » Feed
  Feed URL: http://newspeppermint.com/feed/
  Result: 10 posts/year (Status: OK, Last: 2025-05-15)
Processing feed 2/1263: HowToCreate - Opera
  Feed URL: http://www.howtocreate.co.uk/operaStuff/operaStuff.xml
  Result: 0 posts/year (Status: OLD, Last: 2009-05-22)
Processing feed 3/1263: 오늘의뉴스
  Feed URL: http://rss.etnews.co.kr/Section901.xml
  Result: 14 posts/year (Status: OK, Last: 2026-01-03)
Processing feed 4/1263: 많이본기사 : 뉴스 : 한겨레 뉴스 - 인터넷한겨레
  Feed URL: http://www.hani.co.kr/rss/newsrank/
  Result: 70 posts/year (Status: OK, Last: 2026-01-03)
Processing feed 5/1263: 뉴스톱 - 전체기사
  Feed URL: http://www.newstof.com/rss/allArticle.xml
  Result: 50 posts/year (Status: OK, Last: 2026-01-02)
Processing feed 6/1263: 주요기사 : 뉴스 : 한겨레 뉴스 - 인터넷한겨레
  Feed URL: http://www.hani.co.kr/rss/lead/
  Result: 0 posts/year (Status: ERROR, Last: None)
Processing feed 7/1263: 오마이뉴스 - 사회
  Feed URL: http://rss.ohmynews.com/rss/society.xml
  Result: 20 posts/year (Status: OK, Last: 2026-01-03)
Processing feed 8/1263: 미디어오늘 - 전체기사
  Feed URL: http://www.mediatoday.co.kr/rss/allArticle.xml
  Result: 50 posts/year (Status: OK, Last: 2026-01-03)
Processing feed 9/1263: 채널예스 : 영화
  Feed URL: http://ch.yes24.com/feed/column/2172
  Result: 0 posts/year (Status: ERROR, Last: None)
Processing feed 10/1263: 채널예스 : 책
  Feed URL: http://ch.yes24.com/feed/column/2162
  Result: 0 posts/year (Status: ERROR, Last: None)
Processing feed 11/1263: 채널예스 : 만나고 싶었어요!
  Feed URL: http://ch.yes24.com/feed/columns/1958
  Result: 0 posts/year (Status: ERROR, Last: None)
Processing feed 12/1263: 채널예스 : 작가와의 만남
  Feed URL: http://ch.yes24.com/feed/columns/1959
  Result: 0 posts/year (Status: ERROR, Last: None)
Processing feed 13/1263: 채널예스 : 특집 기획
  Feed URL: http://ch.yes24.com/feed/column/2184
  Result: 0 posts/year (Status: ERROR, Last: None)
Processing feed 14/1263: 채널예스 : 여행/취미
  Feed URL: http://ch.yes24.com/feed/column/2168
  Result: 0 posts/year (Status: ERROR, Last: None)
Processing feed 15/1263: London Review of Books
  Feed URL: http://www.lrb.co.uk/homerss.xml
  Result: 0 posts/year (Status: ERROR, Last: None)
Processing feed 16/1263: 채널예스 : 음악
  Feed URL: http://ch.yes24.com/feed/column/2163
  Result: 0 posts/year (Status: ERROR, Last: None)
Processing feed 17/1263: 채널예스 : 주목, 이주의 신간
  Feed URL: http://ch.yes24.com/feed/column/2177
  Result: 0 posts/year (Status: ERROR, Last: None)
Processing feed 18/1263: 채널예스 : 대중문화
  Feed URL: http://ch.yes24.com/feed/column/2165
  Result: 0 posts/year (Status: ERROR, Last: None)
Processing feed 19/1263: 디에디트
  Feed URL: http://the-edit.co.kr/feed
  Result: 10 posts/year (Status: OK, Last: 2026-01-02)
Processing feed 20/1263: Philosophy Now
  Feed URL: http://www.philosophynow.org/rss
  Result: 33 posts/year (Status: OK, Last: 2025-12-06)
Processing feed 21/1263: 클리앙 : 덕질한당
  Feed URL: https://rss.diffbot.com/rss?url=https://www.clien.net/service/board/cm_ku
  Result: 0 posts/year (Status: ERROR, Last: None)
Processing feed 22/1263: 클리앙 : 날아간당
  Feed URL: https://rss.diffbot.com/rss?url=https://www.clien.net/service/board/cm_airplane
  Result: 0 posts/year (Status: ERROR, Last: None)
Processing feed 23/1263: Potentials, IEEE - new TOC
  Feed URL: http://ieeexplore.ieee.org/rss/TOC45.XML
  Result: 13 posts/year (Status: OK, Last: 2025-11-07)
Processing feed 24/1263: 클리앙 : 달린당
  Feed URL: https://rss.diffbot.com/rss?url=https://www.clien.net/service/board/cm_running
  Result: 0 posts/year (Status: ERROR, Last: None)
Processing feed 25/1263: What's On
  Feed URL: https://rss.diffbot.com/rss?url=https://www.gresham.ac.uk/whats-on
  Result: 0 posts/year (Status: OLD, Last: None)
Processing feed 26/1263: News Shopper | Bexley
  Feed URL: http://www.newsshopper.co.uk/news/bexley/rss/
  Result: 50 posts/year (Status: OK, Last: 2026-01-01)
Processing feed 27/1263: MakeUseOf - iPhone
  Feed URL: http://www.makeuseof.com/service/ios/feed/
  Result: 10 posts/year (Status: OK, Last: 2026-01-01)
Processing feed 28/1263: Aeon | a world of ideas
  Feed URL: https://aeon.co/feed.rss
  Result: 20 posts/year (Status: OK, Last: 2025-12-22)
Processing feed 29/1263: Merriam-Webster's Word of the Day
  Feed URL: http://www.merriam-webster.com/word/index.xml
  Result: 10 posts/year (Status: OK, Last: 2026-01-03)
Processing feed 30/1263: FlowingData
  Feed URL: http://feeds.feedburner.com/FlowingData
  Result: 10 posts/year (Status: OK, Last: 2026-01-02)
Processing feed 31/1263: 거리의 풍경
  Feed URL: http://blog.rss.naver.com/unviajero.xml
  Result: 50 posts/year (Status: OK, Last: 2026-01-02)
Processing feed 32/1263: IEEE Annals of the History of Computing - new TOC
  Feed URL: http://ieeexplore.ieee.org/rss/TOC85.XML
  Result: 25 posts/year (Status: OK, Last: 2025-12-23)
Processing feed 33/1263: Toxel.com
  Feed URL: http://feeds.feedburner.com/toxel
  Result: 10 posts/year (Status: OK, Last: 2026-01-02)
Processing feed 34/1263: Terence Eden’s Blog
  Feed URL: https://shkspr.mobi/blog/feed/atom/
  Result: 20 posts/year (Status: OK, Last: 2026-01-03)
Processing feed 35/1263: Computing | The Guardian
  Feed URL: http://www.guardian.co.uk/technology/computing/rss
  Result: 20 posts/year (Status: OK, Last: 2026-01-03)
Processing feed 36/1263: Best of The Atlantic
  Feed URL: http://feeds.feedburner.com/Best-Of-The-Atlantic
  Result: 23 posts/year (Status: OK, Last: 2026-01-03)
Processing feed 37/1263: Semafor
  Feed URL: https://www.semafor.com/rss.xml
  Result: 109 posts/year (Status: OK, Last: 2026-01-03)
Processing feed 38/1263: (구)아이포니앙
  Feed URL: https://rss.diffbot.com/rss?url=https://damoang.net/iphone
  Result: 0 posts/year (Status: ERROR, Last: None)
Processing feed 39/1263: 그림만화 BEST
  Feed URL: https://rss.diffbot.com/rss?url=https://m.ruliweb.com/best/cartoon
  Result: 28 posts/year (Status: OK, Last: 2026-01-03)
Processing feed 40/1263: Hack a Day
  Feed URL: http://hackaday.com/feed/
  Result: 7 posts/year (Status: OK, Last: 2026-01-03)
Processing feed 41/1263: Atlas Obscura
  Feed URL: http://atlasobscura.com/rss.xml
  Result: 24 posts/year (Status: OK, Last: 2026-01-02)
Processing feed 42/1263: BBC News
  Feed URL: http://newsrss.bbc.co.uk/rss/newsonline_world_edition/business/rss.xml
  Result: 50 posts/year (Status: OK, Last: 2026-01-03)
Processing feed 43/1263: Wired Top Stories
  Feed URL: http://www.wired.com/news/feeds/rss2/0,2610,,00.xml
  Result: 0 posts/year (Status: ERROR, Last: None)
Processing feed 44/1263: Phoronix
  Feed URL: http://www.phoronix.com/rss.php
  Result: 32 posts/year (Status: OK, Last: 2026-01-03)
Processing feed 45/1263: Everything
  Feed URL: http://www.newyorker.com/services/mrss/feeds/everything.xml
  Result: 50 posts/year (Status: OK, Last: 2026-01-03)
Processing feed 46/1263: 달린당
  Feed URL: https://rss.diffbot.com/rss?url=https://damoang.net/running
  Result: 0 posts/year (Status: ERROR, Last: None)
Processing feed 47/1263: 바다건너당
  Feed URL: https://rss.diffbot.com/rss?url=https://damoang.net/overseas
  Result: 0 posts/year (Status: ERROR, Last: None)
Processing feed 48/1263: Philosophy Now
  Feed URL: http://www.philosophynow.org/rss
  Result: 33 posts/year (Status: OK, Last: 2025-12-06)
Processing feed 49/1263: Potentials, IEEE - new TOC
  Feed URL: http://ieeexplore.ieee.org/rss/TOC45.XML
  Result: 13 posts/year (Status: OK, Last: 2025-11-07)
Processing feed 50/1263: Spectrum, IEEE - new TOC
  Feed URL: http://ieeexplore.ieee.org/rss/TOC6.XML
  Result: 23 posts/year (Status: OK, Last: 2025-12-10)
Processing feed 51/1263: IEEE Annals of the History of Computing - new TOC
  Feed URL: http://ieeexplore.ieee.org/rss/TOC85.XML
  Result: 25 posts/year (Status: OK, Last: 2025-12-23)
Processing feed 52/1263: Transactions on Computers - new TOC
  Feed URL: http://ieeexplore.ieee.org/rss/TOC12.XML
  Result: 29 posts/year (Status: OK, Last: 2025-11-14)
Processing feed 53/1263: Computer - new TOC
  Feed URL: http://ieeexplore.ieee.org/rss/TOC2.XML
  Result: 50 posts/year (Status: OK, Last: 2025-12-31)
Processing feed 54/1263: Engadget
  Feed URL: http://www.engadget.com/rss.xml
  Result: 50 posts/year (Status: OK, Last: 2026-01-03)
Processing feed 55/1263: 지도와 Web2.0 그리고 한국의 미래
  Feed URL: http://feeds2.feedburner.com/blogspot/InternetMap
  Result: 10 posts/year (Status: OK, Last: 2025-12-29)
Processing feed 56/1263: Christian Heilmann
  Feed URL: http://www.wait-till-i.com/wp-atom.php
  Result: 0 posts/year (Status: ERROR, Last: None)
Processing feed 57/1263: Jonathan Snook
  Feed URL: http://feeds.feedburner.com/snookca
  Result: 8 posts/year (Status: OK, Last: 2025-12-31)
Processing feed 58/1263: Nettuts+
  Feed URL: http://net.tutsplus.com/feed/
  Result: 9 posts/year (Status: OK, Last: 2025-07-21)
Processing feed 59/1263: Remy Sharp
  Feed URL: http://feeds.feedburner.com/remysharp
  Result: 42 posts/year (Status: OK, Last: 2026-01-01)
Processing feed 60/1263: Thoughts From Eric
  Feed URL: http://meyerweb.com/eric/thoughts/rss2/summary
  Result: 10 posts/year (Status: OK, Last: 2025-12-19)
Processing feed 61/1263: Bruce Lawson's personal site
  Feed URL: http://www.brucelawson.co.uk/feed/
  Result: 6 posts/year (Status: OK, Last: 2025-12-12)
Processing feed 62/1263: HTML + CSS + JavaScript
  Feed URL: http://feeds2.feedburner.com/HtmlCssJavascript
  Result: 3 posts/year (Status: OK, Last: 2025-10-15)
Processing feed 63/1263: Software As She's Developed
  Feed URL: http://softwareas.com/feed
  Result: 0 posts/year (Status: OLD, Last: 2024-12-21)
Processing feed 64/1263: Lea Verou
  Feed URL: http://leaverou.me/feed/
  Result: 0 posts/year (Status: OLD, Last: 2023-08-31)
Processing feed 65/1263: Smashing Coding
  Feed URL: http://rss1.smashingmagazine.com/feed/?f=coding-std
  Result: 40 posts/year (Status: OK, Last: 2025-12-30)
Processing feed 66/1263: Universe Today
  Feed URL: http://www.universetoday.com/universetoday.xml
  Result: 20 posts/year (Status: OK, Last: 2026-01-02)
Processing feed 67/1263: Centauri Dreams — Imagining and Planning Interstellar Exploration
  Feed URL: https://follow.it/centauri-dreams-imagining-and-planning-interstellar-exploration/rss
  Result: 20 posts/year (Status: OK, Last: 2026-01-01)
Processing feed 68/1263: The Space Review
  Feed URL: http://www.thespacereview.com/articles.xml
  Result: 214 posts/year (Status: OK, Last: 2025-12-22)
Processing feed 69/1263: SPACE.com
  Feed URL: http://www.space.com/syn/space.xml
  Result: 50 posts/year (Status: OK, Last: 2026-01-03)
Processing feed 70/1263: astrobites
  Feed URL: http://astrobites.com/feed/
  Result: 10 posts/year (Status: OK, Last: 2026-01-01)
Processing feed 71/1263: SkyandTelescope.com's Most Recent Articles
  Feed URL: http://www.skyandtelescope.com/MostRecent.rss
  Result: 0 posts/year (Status: ERROR, Last: None)
Processing feed 72/1263: Cycling UK Forum
  Feed URL: https://forum.cyclinguk.org/app.php/feed/forum/55?sid=c640585fb4d2be3887a7e8505b9de849
  Result: 10 posts/year (Status: OK, Last: 2026-01-01)
Processing feed 73/1263: Ye Olde Blogroll — Firehose
  Feed URL: https://blogroll.org/feed/
  Result: 9 posts/year (Status: OK, Last: 2025-11-28)
Processing feed 74/1263: 채널예스 : ARTICLE
  Feed URL: http://ch.yes24.com/feed/columns/
  Result: 0 posts/year (Status: ERROR, Last: None)
Processing feed 75/1263: The Free Press
  Feed URL: https://bariweiss.substack.com/feed/
  Result: 20 posts/year (Status: OK, Last: 2026-01-03)
Processing feed 76/1263: Discover Blogs
  Feed URL: http://feeds.feedburner.com/DiscoverBlogs
  Result: 20 posts/year (Status: OK, Last: 2026-01-02)
Processing feed 77/1263: Opinion | The Guardian
  Feed URL: http://feeds.theguardian.com/theguardian/us/commentisfree/rss
  Result: 22 posts/year (Status: OK, Last: 2026-01-03)
Processing feed 78/1263: 강갑생의 바퀴와 날개
  Feed URL: https://rss.diffbot.com/rss?url=https://www.joongang.co.kr/series/11059
  Result: 24 posts/year (Status: OK, Last: 2025-12-30)
Processing feed 79/1263: InfoQ
  Feed URL: http://www.infoq.com/rss/rss.action
  Result: 15 posts/year (Status: OK, Last: 2026-01-03)
Processing feed 80/1263: TechBlogPosts
  Feed URL: https://techblogposts.com/rss.xml
  Result: 10 posts/year (Status: OK, Last: 2026-01-02)
Processing feed 81/1263: BBC News
  Feed URL: http://newsrss.bbc.co.uk/rss/newsonline_world_edition/technology/rss.xml
  Result: 56 posts/year (Status: OK, Last: 2026-01-02)
Processing feed 82/1263: 클리앙 : 사용기
  Feed URL: https://rss.diffbot.com/rss?url=https://www.clien.net/service/board/use
  Result: 0 posts/year (Status: ERROR, Last: None)
Processing feed 83/1263: ErgoMechBoards
  Feed URL: https://rss.diffbot.com/rss?url=https://www.reddit.com/r/ErgoMechKeyboards/
  Result: 0 posts/year (Status: ERROR, Last: None)
Processing feed 84/1263: 책과 생각 뉴스
  Feed URL: https://rss.diffbot.com/rss?url=https://www.hani.co.kr/arti/culture/book
  Result: 0 posts/year (Status: ERROR, Last: None)
Processing feed 85/1263: 개발한당
  Feed URL: https://rss.diffbot.com/rss?url=https://damoang.net/development
  Result: 0 posts/year (Status: ERROR, Last: None)
Processing feed 86/1263: Time Out London
  Feed URL: http://www.timeout.com/london/blog/feed.rss
  Result: 100 posts/year (Status: OK, Last: 2026-01-02)
Processing feed 87/1263: Bear Blog Trending Posts
  Feed URL: https://bearblog.dev/discover/feed/
  Result: 20 posts/year (Status: OK, Last: 2026-01-02)
Processing feed 88/1263: Tip Tech : KBDMania
  Feed URL: http://www.kbdmania.net/xe/?mid=tipandtech&act=rss
  Result: 0 posts/year (Status: OLD, Last: 2022-01-27)
Processing feed 89/1263: OECD.org - Korea
  Feed URL: http://www.oecd.org/RSS_channel/0,3045,en_33873108_33873555_1_1_1_1_1,00.xml
  Result: 0 posts/year (Status: ERROR, Last: None)
Processing feed 90/1263: Life is Good
  Feed URL: http://feeds.feedburner.com/tistory-lifeisgood
  Result: 0 posts/year (Status: OLD, Last: 2023-10-17)
Processing feed 91/1263: 대영제국에서 온 편지
  Feed URL: https://kill-the-newsletter.com/feeds/jhj2a69t5g5lu93s.xml
  Result: 0 posts/year (Status: OLD, Last: 2022-04-04)
Processing feed 92/1263: Paul Graham: Essays
  Feed URL: http://www.aaronsw.com/2002/feeds/pgessays.rss
  Result: 0 posts/year (Status: OLD, Last: None)
Processing feed 93/1263: PATENT DROP
  Feed URL: https://patentdrop.substack.com/feed/
  Result: 0 posts/year (Status: EMPTY, Last: None)
Processing feed 94/1263: 이글루스 '얼리어답터' 테마 인기글
  Feed URL: http://valley.egloos.com/theme/rss/top/earlyadopter
  Result: 0 posts/year (Status: ERROR, Last: None)
Processing feed 95/1263: The Rebooting
  Feed URL: https://therebooting.substack.com/feed/
  Result: 0 posts/year (Status: OLD, Last: 2023-12-18)
Processing feed 96/1263: 박태웅
  Feed URL: https://brunch.co.kr/rss/@@Qk4
  Result: 4 posts/year (Status: OK, Last: 2025-10-27)
Processing feed 97/1263: nixCraft Linux Sys Admin Blog
  Feed URL: http://feeds.cyberciti.biz/Nixcraft-LinuxFreebsdSolarisTipsTricks
  Result: 9 posts/year (Status: OK, Last: 2025-03-18)
Processing feed 98/1263: Software As She's Developed
  Feed URL: http://softwareas.com/feed
  Result: 0 posts/year (Status: OLD, Last: 2024-12-21)
Processing feed 99/1263: tech.ssut
  Feed URL: https://tech.ssut.me/rss/
  Result: 1 posts/year (Status: OK, Last: 2025-05-10)
Processing feed 100/1263: Starkey Comics
  Feed URL: https://starkeycomics.com/feed/
  Result: 10 posts/year (Status: OK, Last: 2025-10-31)
Processing feed 101/1263: 컬리 기술 블로그
  Feed URL: http://thefarmersfront.github.io/feed.xml
  Result: 24 posts/year (Status: OK, Last: 2025-12-23)
Processing feed 102/1263: 과학 – NewsPeppermint
  Feed URL: http://newspeppermint.com/category/science-environment/feed/
  Result: 0 posts/year (Status: OLD, Last: 2023-02-27)
Processing feed 103/1263: 라디오키즈@LifeLog
  Feed URL: http://feeds.neoearly.net/radiokidz
  Result: 0 posts/year (Status: EMPTY, Last: None)
Processing feed 104/1263: Joel on Software
  Feed URL: http://www.joelonsoftware.com/rss.xml
  Result: 0 posts/year (Status: OLD, Last: 2022-12-19)
Processing feed 105/1263: Alden's Dev Log
  Feed URL: https://alden-kang.tistory.com/rss
  Result: 0 posts/year (Status: OLD, Last: 2023-02-19)
Processing feed 106/1263: Fathy Boundjadj
  Feed URL: https://fathy.fr/rss.xml
  Result: 0 posts/year (Status: OLD, Last: 2023-01-27)
Processing feed 107/1263: 노란 잠수함
  Feed URL: http://blog.rss.naver.com/rockks77.xml
  Result: 0 posts/year (Status: OLD, Last: 2015-06-16)
Processing feed 108/1263: Blog Needs a Name
  Feed URL: https://rss.diffbot.com/rss?url=https://ahgamut.github.io/
  Result: 0 posts/year (Status: ERROR, Last: None)
Processing feed 109/1263: 이글루스 '도서' 테마 인기글
  Feed URL: http://valley.egloos.com/theme/rss/top/book
  Result: 0 posts/year (Status: ERROR, Last: None)
Processing feed 110/1263: Design in government
  Feed URL: https://designnotes.blog.gov.uk/feed/
  Result: 5 posts/year (Status: OK, Last: 2025-12-09)
Processing feed 111/1263: 주요기사 : 뉴스 : 한겨레 뉴스 - 인터넷한겨레
  Feed URL: http://www.hani.co.kr/rss/lead/
  Result: 0 posts/year (Status: ERROR, Last: None)
Processing feed 112/1263: 이글루스 '애니메이션' 테마 인기글
  Feed URL: http://valley.egloos.com/theme/rss/top/animation
  Result: 0 posts/year (Status: ERROR, Last: None)
Processing feed 113/1263: 딥다이브
  Feed URL: https://kill-the-newsletter.com/feeds/n6qd9vhay5vjko7z.xml
  Result: 0 posts/year (Status: OLD, Last: 2023-03-19)
Processing feed 114/1263: Instructables: featured
  Feed URL: http://feeds.feedburner.com/instructables/featured
  Result: 0 posts/year (Status: OLD, Last: 2019-11-05)
Processing feed 115/1263: 이기적이고 주관적이고 객관성없는곳
  Feed URL: http://blog.rss.naver.com/raimorenji.xml
  Result: 0 posts/year (Status: OLD, Last: 2023-06-23)
Processing feed 116/1263: CaN (Computer & Network) Tips
  Feed URL: http://pakcw.cafe24.com/rss
  Result: 0 posts/year (Status: ERROR, Last: None)
Processing feed 117/1263: Roy Tanck
  Feed URL: http://feeds.feedburner.com/RoyTancksWeblog
  Result: 6 posts/year (Status: OK, Last: 2025-07-30)
Processing feed 118/1263: Posts on Tech Notes by Natan Yellin
  Feed URL: https://natanyellin.com/posts/index.xml
  Result: 0 posts/year (Status: OLD, Last: 2023-04-17)
Processing feed 119/1263: 책습관
  Feed URL: https://brunch.co.kr/rss/@@hTC
  Result: 0 posts/year (Status: OLD, Last: 2018-11-23)
Processing feed 120/1263: 채널예스 : 작가와의 만남
  Feed URL: http://ch.yes24.com/feed/columns/1959
  Result: 0 posts/year (Status: ERROR, Last: None)
Processing feed 121/1263: Lambda the Ultimate - Programming Languages Weblog
  Feed URL: http://lambda-the-ultimate.org/rss.xml
  Result: 0 posts/year (Status: OLD, Last: 2023-03-04)
Processing feed 122/1263: Kellan Elliott-McCrea: Blog
  Feed URL: http://laughingmeme.org/feed
  Result: 2 posts/year (Status: OK, Last: 2025-06-01)
Processing feed 123/1263: 썸원의 SUMMARY&EDIT
  Feed URL: https://kill-the-newsletter.com/feeds/9kaluz14ci2ppe19.xml
  Result: 0 posts/year (Status: OLD, Last: 2022-02-23)
Processing feed 124/1263: Pikuma
  Feed URL: https://pikuma.com/feed
  Result: 0 posts/year (Status: OLD, Last: 2024-08-08)
Processing feed 125/1263: High Scalability
  Feed URL: http://feeds.feedburner.com/HighScalability
  Result: 0 posts/year (Status: OLD, Last: 2023-08-16)
Processing feed 126/1263: Instructables: popular
  Feed URL: http://feeds.feedburner.com/instructables/popular
  Result: 0 posts/year (Status: OLD, Last: 2019-10-31)
Processing feed 127/1263: Kalzumeus Software
  Feed URL: http://www.kalzumeus.com/feed/
  Result: 1 posts/year (Status: OK, Last: 2025-02-10)
Processing feed 128/1263: Lea Verou
  Feed URL: http://leaverou.me/feed/
  Result: 0 posts/year (Status: OLD, Last: 2023-08-31)
Processing feed 129/1263: 이글루스 '영화' 테마 인기글
  Feed URL: http://valley.egloos.com/theme/rss/top/movie
  Result: 0 posts/year (Status: ERROR, Last: None)
Processing feed 130/1263: Insuk's memolog at Yellow Submarine
  Feed URL: http://feed43.com/0880813416673318.xml
  Result: 0 posts/year (Status: ERROR, Last: None)
Processing feed 131/1263: eincs
  Feed URL: http://eincs.com/atom.xml
  Result: 0 posts/year (Status: OLD, Last: 2013-08-05)
Processing feed 132/1263: Nightaholic
  Feed URL: http://cyhome.cyworld.com/a1425316/rss2
  Result: 0 posts/year (Status: ERROR, Last: None)
Processing feed 133/1263: Market Information : KBDMania
  Feed URL: http://www.kbdmania.net/xe/?mid=market_info&act=rss
  Result: 0 posts/year (Status: OLD, Last: 2024-06-13)
Processing feed 134/1263: 산으로
  Feed URL: http://blog.rss.naver.com/kl35250kl.xml
  Result: 0 posts/year (Status: OLD, Last: 2019-04-27)
Processing feed 135/1263: 기즈모 블로그(디지털 오르가슴 연구소)
  Feed URL: http://blog.rss.naver.com/gizmoblog.xml
  Result: 0 posts/year (Status: OLD, Last: 2022-03-02)
Processing feed 136/1263: Michael Feathers
  Feed URL: https://michaelfeathers.silvrback.com/feed
  Result: 0 posts/year (Status: OLD, Last: 2023-07-11)
Processing feed 137/1263: Caffeinspiration
  Feed URL: https://alexanderell.is/index.xml
  Result: 5 posts/year (Status: OK, Last: 2025-11-16)
Processing feed 138/1263: 이글루스 '여행' 테마 인기글
  Feed URL: http://valley.egloos.com/theme/rss/top/travel
  Result: 0 posts/year (Status: ERROR, Last: None)
Processing feed 139/1263: raganwald.com
  Feed URL: https://raganwald.com/atom.xml
  Result: 0 posts/year (Status: OLD, Last: 2023-04-27)
Processing feed 140/1263: 빈꿈 EMPTYDREAM
  Feed URL: http://emptydream.tistory.com/rss
  Result: 0 posts/year (Status: OLD, Last: 2023-06-29)
Processing feed 141/1263: Stories by 조은, Eun Cho on Medium
  Feed URL: https://medium.com/feed/@euncho/
  Result: 0 posts/year (Status: ERROR, Last: None)
Processing feed 142/1263: 곰개구리
  Feed URL: http://kisskys.tistory.com/rss
  Result: 0 posts/year (Status: OLD, Last: 2012-11-06)
Processing feed 143/1263: parsonsmatt.org
  Feed URL: https://www.parsonsmatt.org/feed.xml
  Result: 2 posts/year (Status: OK, Last: 2025-12-17)
Processing feed 144/1263: C with Crosses
  Feed URL: https://victor-istomin.github.io/c-with-crosses/feed.xml
  Result: 0 posts/year (Status: OLD, Last: 2023-07-13)
Processing feed 145/1263: ZNINLDN
  Feed URL: http://zninldn.wordpress.com/feed/
  Result: 0 posts/year (Status: OLD, Last: 2018-03-07)
Processing feed 146/1263: To be happy...
  Feed URL: http://blog.moneta.co.kr/rss/blog/ky2kyung/-1
  Result: 0 posts/year (Status: OLD, Last: 2020-02-22)
Processing feed 147/1263: Rene & Rousseau
  Feed URL: http://skysummer.com/rss
  Result: 0 posts/year (Status: ERROR, Last: None)
Processing feed 148/1263: KLDP - 토론, 토의
  Feed URL: http://kldp.org/taxonomy/term/32/0/feed
  Result: 0 posts/year (Status: OLD, Last: 2023-12-06)
Processing feed 149/1263: CSS Wizardry
  Feed URL: http://feeds.feedburner.com/csswizardry
  Result: 6 posts/year (Status: OK, Last: 2025-08-18)
Processing feed 150/1263: au VimEnter
  Feed URL: https://au-vimenter.github.io/feed.xml
  Result: 0 posts/year (Status: OLD, Last: 2024-11-08)
Processing feed 151/1263: mango.pdf.zone
  Feed URL: https://mango.pdf.zone/feed.xml
  Result: 0 posts/year (Status: OLD, Last: 2022-01-12)
Processing feed 152/1263: Paul Cavallaro's Blog on Paul Cavallaro
  Feed URL: https://paulcavallaro.com/blog/index.xml
  Result: 1 posts/year (Status: OK, Last: 2025-07-25)
Processing feed 153/1263: 올빼미 화원
  Feed URL: http://blog.rss.naver.com/manwha21
  Result: 0 posts/year (Status: EMPTY, Last: None)
Processing feed 154/1263: The Diff
  Feed URL: https://diff.substack.com/feed/
  Result: 0 posts/year (Status: ERROR, Last: None)
Processing feed 155/1263: HowToCreate - Opera
  Feed URL: http://www.howtocreate.co.uk/operaStuff/operaStuff.xml
  Result: 0 posts/year (Status: OLD, Last: 2009-05-22)
Processing feed 156/1263: KAIST, NSLab 일상 생활
  Feed URL: http://nslab.tistory.com/rss
  Result: 0 posts/year (Status: ERROR, Last: None)
Processing feed 157/1263: https://mobile.newsis.com/search.php?kwd=조수원+BOOK북적
  Feed URL: https://rss.diffbot.com/rss?url=https://mobile.newsis.com/search.php?kwd%3D%25EC%25A1%25B0%25EC%2588%2598%25EC%259B%2590%2BBOOK%25EB%25B6%2581%25EC%25A0%2581
  Result: 0 posts/year (Status: ERROR, Last: None)
Processing feed 158/1263: 대한민국역사박물관
  Feed URL: https://brunch.co.kr/rss/@@c8wm
  Result: 0 posts/year (Status: OLD, Last: 2022-08-31)
Processing feed 159/1263: KLDP blogs
  Feed URL: http://kldp.org/blog/feed
  Result: 0 posts/year (Status: OLD, Last: 2022-10-12)
Processing feed 160/1263: Geeking with Greg
  Feed URL: http://feeds.feedburner.com/GeekingWithGreg
  Result: 0 posts/year (Status: OLD, Last: 2024-01-12)
Processing feed 161/1263: AlastairC
  Feed URL: https://alastairc.uk/feed/
  Result: 3 posts/year (Status: OK, Last: 2025-11-27)
Processing feed 162/1263: dream catcher
  Feed URL: http://blog.rss.naver.com/sunset0902.xml
  Result: 41 posts/year (Status: OK, Last: 2025-11-20)
Processing feed 163/1263: 박규영_자연의 비경
  Feed URL: http://blog.rss.naver.com/photoky.xml
  Result: 0 posts/year (Status: OLD, Last: 2023-07-14)
Processing feed 164/1263: Dhananjay Kumar
  Feed URL: http://debugmode.net/feed/
  Result: 10 posts/year (Status: OK, Last: 2025-11-08)
Processing feed 165/1263: Kishore Ganesh
  Feed URL: https://kishoreganesh.com/index.xml
  Result: 0 posts/year (Status: OLD, Last: 2024-01-10)
Processing feed 166/1263: OECD.org - United Kingdom
  Feed URL: http://www.oecd.org/RSS_channel/0,3045,en_33873108_33873870_1_1_1_1_1,00.xml
  Result: 0 posts/year (Status: ERROR, Last: None)
Processing feed 167/1263: GYUHANG.NET
  Feed URL: http://gyuhang.net/rss
  Result: 0 posts/year (Status: ERROR, Last: None)
Processing feed 168/1263: 뉴스타파 NEWSTAPA
  Feed URL: http://download.newstapa.org/api/podcast.xml
  Result: 0 posts/year (Status: OLD, Last: 2022-11-07)
Processing feed 169/1263: 이글루스 'IT' 테마 인기글
  Feed URL: http://valley.egloos.com/theme/rss/top/technology
  Result: 0 posts/year (Status: ERROR, Last: None)
Processing feed 170/1263: 이글루스 '뉴스비평' 테마 인기글
  Feed URL: http://valley.egloos.com/theme/rss/top/news
  Result: 0 posts/year (Status: ERROR, Last: None)
Processing feed 171/1263: A guide to mainlining android phones
  Feed URL: https://mainlining.dev/feed/
  Result: 0 posts/year (Status: OLD, Last: 2022-08-06)
Processing feed 172/1263: 에스티마의 인터넷이야기
  Feed URL: http://estima.wordpress.com/feed/
  Result: 0 posts/year (Status: OLD, Last: 2021-08-15)
Processing feed 173/1263: Ed Yong | The Atlantic
  Feed URL: http://www.theatlantic.com/feed/author/ed-yong/
  Result: 0 posts/year (Status: OLD, Last: 2023-07-27)
Processing feed 174/1263: 채널예스 : 음악
  Feed URL: http://ch.yes24.com/feed/column/2163
  Result: 0 posts/year (Status: ERROR, Last: None)
Processing feed 175/1263: Scientific American
  Feed URL: http://rss.sciam.com/sciam/biology
  Result: 0 posts/year (Status: OLD, Last: 2024-03-01)
Processing feed 176/1263: Therocode's blog
  Feed URL: https://blog.therocode.net/feed.xml
  Result: 0 posts/year (Status: OLD, Last: 2020-10-07)
Processing feed 177/1263: 이그잼플
  Feed URL: https://junegunn.kr/feed/
  Result: 0 posts/year (Status: ERROR, Last: None)
Processing feed 178/1263: 내 안의 女神을 깨워라
  Feed URL: http://blog.rss.naver.com/wizaard.xml
  Result: 0 posts/year (Status: OLD, Last: 2021-12-15)
Processing feed 179/1263: 얼리어답터
  Feed URL: http://www.earlyadopter.co.kr/feed
  Result: 0 posts/year (Status: ERROR, Last: None)
Processing feed 180/1263: mattorb
  Feed URL: https://mattorb.com/rss/
  Result: 5 posts/year (Status: OK, Last: 2025-03-14)
Processing feed 181/1263: 감칠맛 나는 글을 쓰고 싶은 공돌이!!!! ㅠ.ㅠ - Kwangswei's life
  Feed URL: http://kwangswei.tistory.com/rss
  Result: 0 posts/year (Status: EMPTY, Last: None)
Processing feed 182/1263: 다시 맑음
  Feed URL: http://blog.rss.naver.com/manpack.xml
  Result: 0 posts/year (Status: OLD, Last: 2022-03-28)
Processing feed 183/1263: Adactio: Articles
  Feed URL: http://adactio.com/articles/rss
  Result: 2 posts/year (Status: OK, Last: 2025-04-27)
Processing feed 184/1263: Essays-Long-Reads - Bicycling
  Feed URL: https://www.bicycling.com/rss/essays-long-reads.xml
  Result: 0 posts/year (Status: EMPTY, Last: None)
Processing feed 185/1263: Blogs from the Natural History Museum
  Feed URL: https://naturalhistorymuseum.blog/feed/
  Result: 0 posts/year (Status: ERROR, Last: None)
Processing feed 186/1263: Gmail Blog
  Feed URL: http://feeds.feedburner.com/OfficialGmailBlog
  Result: 5 posts/year (Status: OK, Last: 2025-09-11)
Processing feed 187/1263: 서성록의 미술이야기
  Feed URL: http://blog.rss.naver.com/seongrok123.xml
  Result: 11 posts/year (Status: OK, Last: 2025-11-11)
Processing feed 188/1263: SpeakOfTheDevrel.Cloud: Doug Sillars
  Feed URL: https://dougsillars.com/feed/
  Result: 1 posts/year (Status: OK, Last: 2025-04-15)
Processing feed 189/1263: atthis.link
  Feed URL: https://atthis.link/rss.xml
  Result: 1 posts/year (Status: OK, Last: 2025-02-20)
Processing feed 190/1263: 뒤죽박죽 별장
  Feed URL: http://blog.daum.net/xml/rss/rockks77
  Result: 0 posts/year (Status: ERROR, Last: None)
Processing feed 191/1263: leah blogs
  Feed URL: http://chneukirchen.org/blog/index.atom
  Result: 4 posts/year (Status: OK, Last: 2025-12-24)
Processing feed 192/1263: Small Steps Blog
  Feed URL: http://feeds.feedburner.com/jooyunghan
  Result: 0 posts/year (Status: OLD, Last: 2012-04-17)
Processing feed 193/1263: Sam Zeloof
  Feed URL: http://sam.zeloof.xyz/feed/
  Result: 0 posts/year (Status: OLD, Last: 2023-03-18)
Processing feed 194/1263: Blog on Dan North &amp; Associates Limited
  Feed URL: https://dannorth.net/blog/index.xml
  Result: 1 posts/year (Status: OK, Last: 2025-02-03)
Processing feed 195/1263: 찐꽝의 映像時代
  Feed URL: http://blog.rss.naver.com/sabyuk1.xml
  Result: 0 posts/year (Status: OLD, Last: 2024-09-10)
Processing feed 196/1263: 피렌체의 식탁
  Feed URL: https://firenzedt.com/feed
  Result: 0 posts/year (Status: ERROR, Last: None)
Processing feed 197/1263: Gwern.net Newsletter
  Feed URL: https://gwern.substack.com/feed
  Result: 0 posts/year (Status: OLD, Last: 2021-06-11)
Processing feed 198/1263: capcold님의 블로그님
  Feed URL: http://capcold.net/blog/feed
  Result: 0 posts/year (Status: OLD, Last: 2021-08-26)
Processing feed 199/1263: 포커스 취재 > 구정은의 세계, 이곳
  Feed URL: https://rss.diffbot.com/rss?url=https://hankookilbo.com/Collect/7885
  Result: 0 posts/year (Status: ERROR, Last: None)
Processing feed 200/1263: Sonar & Radar » Feed
  Feed URL: http://www.demitrio.com/?feed=rss2
  Result: 0 posts/year (Status: ERROR, Last: None)
Processing feed 201/1263: Paged Out! Magazine
  Feed URL: https://pagedout.institute/rss.xml
  Result: 2 posts/year (Status: OK, Last: 2025-10-04)
Processing feed 202/1263: 이글루스 '게임' 테마 인기글
  Feed URL: http://valley.egloos.com/theme/rss/top/game
  Result: 0 posts/year (Status: ERROR, Last: None)
Processing feed 203/1263: IT 기획 연구소
  Feed URL: http://cfs.tistory.com/custom/named/cy/cyslab/rss.xml
  Result: 0 posts/year (Status: ERROR, Last: None)
Processing feed 204/1263: Thoughts From Eric
  Feed URL: http://meyerweb.com/eric/thoughts/rss2/summary
  Result: 10 posts/year (Status: OK, Last: 2025-12-19)
Processing feed 205/1263: Articles — brandur.org
  Feed URL: http://brandur.org/articles.atom
  Result: 0 posts/year (Status: OLD, Last: 2024-05-28)
Processing feed 206/1263: 최규성의 대중문화산책
  Feed URL: http://blog.rss.naver.com/oopldh.xml
  Result: 1 posts/year (Status: OK, Last: 2025-12-02)
Processing feed 207/1263: drublic – Software Architecture - Hans Christian Reinl, Cologne
  Feed URL: https://drublic.de/feed.xml
  Result: 3 posts/year (Status: OK, Last: 2025-12-07)
Processing feed 208/1263: 장작가 연구실
  Feed URL: http://5bpa.blog.me/rss
  Result: 0 posts/year (Status: ERROR, Last: None)
Processing feed 209/1263: National Geographic Photo of the Day
  Feed URL: http://www.nationalgeographic.com/rss/photography/photo-of-the-day
  Result: 0 posts/year (Status: ERROR, Last: None)
Processing feed 210/1263: DBMS Musings
  Feed URL: http://dbmsmusings.blogspot.com/feeds/posts/default
  Result: 0 posts/year (Status: OLD, Last: 2021-03-25)
Processing feed 211/1263: foobartel.com :: All Posts
  Feed URL: https://foobartel.com/feed
  Result: 0 posts/year (Status: OLD, Last: 2023-11-30)
Processing feed 212/1263: Oxford English Dictionary
  Feed URL: http://www.oed.com/rss.xml
  Result: 0 posts/year (Status: ERROR, Last: None)
Processing feed 213/1263: 꽃이야기
  Feed URL: https://kill-the-newsletter.com/feeds/q81twzoano4wdptt.xml
  Result: 16 posts/year (Status: OK, Last: 2025-08-30)
Processing feed 214/1263: Evil Mad Scientist Laboratories
  Feed URL: http://www.evilmadscientist.com/backend/geeklog.rss
  Result: 1 posts/year (Status: OK, Last: 2025-10-14)
Processing feed 215/1263: The Verge - Buying Guide Posts
  Feed URL: http://www.theverge.com/this-is-my-next/rss/index.xml
  Result: 0 posts/year (Status: ERROR, Last: None)
Processing feed 216/1263: 이글루스 '만화' 테마 인기글
  Feed URL: http://valley.egloos.com/theme/rss/top/comic
  Result: 0 posts/year (Status: ERROR, Last: None)
Processing feed 217/1263: a spark in your veins
  Feed URL: https://e-shootershill.co.uk/feed/
  Result: 0 posts/year (Status: OLD, Last: 2020-10-20)
Processing feed 218/1263: 안단테의 들꽃산책
  Feed URL: http://blog.rss.naver.com/dhlee05
  Result: 0 posts/year (Status: OLD, Last: 2023-04-11)
Processing feed 219/1263: 부크의 아이템창고
  Feed URL: http://blog.rss.naver.com/spd33.xml
  Result: 0 posts/year (Status: OLD, Last: 2017-08-15)
Processing feed 220/1263: Foresight Institute
  Feed URL: http://www.foresight.org/nanodot/wp-rss.php
  Result: 0 posts/year (Status: EMPTY, Last: None)
Processing feed 221/1263: xmonad - the tiling window manager that rocks
  Feed URL: https://xmonad.org/feed.xml
  Result: 0 posts/year (Status: OLD, Last: 2024-08-20)
Processing feed 222/1263: 여행,느낌 그리고 사진
  Feed URL: http://blog.rss.naver.com/dghahn.xml
  Result: 0 posts/year (Status: OLD, Last: 2022-10-03)
Processing feed 223/1263: Coding Horror
  Feed URL: http://feeds.feedburner.com/codinghorror/
  Result: 3 posts/year (Status: OK, Last: 2025-03-20)
Processing feed 224/1263: fpunfold
  Feed URL: http://fpunfold.com/feed.xml
  Result: 0 posts/year (Status: ERROR, Last: None)
Processing feed 225/1263: TEDxSeoul - 번역 개선하기
  Feed URL: http://www.tedxseoul.com/xe/talks/atom
  Result: 0 posts/year (Status: ERROR, Last: None)
Processing feed 226/1263: Applied Cartography
  Feed URL: https://www.applied-cartography.com/rss.xml
  Result: 0 posts/year (Status: ERROR, Last: None)
Processing feed 227/1263: [김삼웅의 인물열전] 반민특위 위원장 김상덕 평전
  Feed URL: http://blog.ohmynews.com/kimsamwoong/rss
  Result: 0 posts/year (Status: ERROR, Last: None)
Processing feed 228/1263: ★여행은 떠나는 자의 몫★
  Feed URL: http://blog.rss.naver.com/mis71.xml
  Result: 0 posts/year (Status: OLD, Last: 2021-07-19)
Processing feed 229/1263: endtimes.dev
  Feed URL: https://endtimes.dev/feed.xml
  Result: 0 posts/year (Status: OLD, Last: 2023-11-25)
Processing feed 230/1263: Byte Cellar
  Feed URL: http://www.bytecellar.com/feed/
  Result: 0 posts/year (Status: OLD, Last: 2024-12-22)
Processing feed 231/1263: 클리앙 : 전기자전거당
  Feed URL: https://rss.diffbot.com/rss?url=https://www.clien.net/service/board/cm_ebicycle
  Result: 0 posts/year (Status: ERROR, Last: None)
Processing feed 232/1263: 초록섬
  Feed URL: http://blog.rss.naver.com/77attic.xml
  Result: 50 posts/year (Status: OK, Last: 2026-01-02)
Processing feed 233/1263: 토토로의 여행공작소
  Feed URL: http://blog.rss.naver.com/babtol2000.xml
  Result: 10 posts/year (Status: OK, Last: 2025-12-20)
Processing feed 234/1263: The Public Domain Review
  Feed URL: http://publicdomainreview.org/feed/
  Result: 100 posts/year (Status: OK, Last: 2026-01-01)
Processing feed 235/1263: Insights | Expert Software Development Articles & Resources
  Feed URL: https://rss.diffbot.com/rss?url=https://www.stackbuilders.com/blog/
  Result: 0 posts/year (Status: ERROR, Last: None)
Processing feed 236/1263: kciter.so
  Feed URL: https://kciter.so/feed.xml
  Result: 15 posts/year (Status: OK, Last: 2025-05-06)
Processing feed 237/1263: Consumer champions | The Guardian
  Feed URL: http://www.guardian.co.uk/money/series/bachelor-and-brignall-consumer-champions/rss
  Result: 20 posts/year (Status: OK, Last: 2025-12-27)
Processing feed 238/1263: 클리앙 : 클다방
  Feed URL: https://rss.diffbot.com/rss?url=https://www.clien.net/service/board/cm_coffee
  Result: 30 posts/year (Status: OK, Last: 2026-01-03)
Processing feed 239/1263: The Atlantic Photo
  Feed URL: http://feeds.feedburner.com/theatlantic/infocus
  Result: 25 posts/year (Status: OK, Last: 2025-04-30)
Processing feed 240/1263: Thoughtworks Insights
  Feed URL: http://www.thoughtworks.com/rss/insights.xml
  Result: 194 posts/year (Status: OK, Last: 2025-12-18)
Processing feed 241/1263: 토마스모어의영화방
  Feed URL: http://blog.rss.naver.com/cine212722.xml
  Result: 50 posts/year (Status: OK, Last: 2026-01-03)
Processing feed 242/1263: 채널예스 : 특집 기획
  Feed URL: http://ch.yes24.com/feed/column/2184
  Result: 0 posts/year (Status: ERROR, Last: None)
Processing feed 243/1263: 클리앙 : 유용한사이트
  Feed URL: https://rss.diffbot.com/rss?url=https://www.clien.net/service/board/useful
  Result: 0 posts/year (Status: ERROR, Last: None)
Processing feed 244/1263: MakeUseOf.com » Mac
  Feed URL: http://www.makeuseof.com/service/mac/feed/
  Result: 10 posts/year (Status: OK, Last: 2026-01-02)
Processing feed 245/1263: Smashing Coding
  Feed URL: http://rss1.smashingmagazine.com/feed/?f=coding-std
  Result: 40 posts/year (Status: OK, Last: 2025-12-30)
Processing feed 246/1263: Humans of New York
  Feed URL: http://www.humansofnewyork.com/rss
  Result: 0 posts/year (Status: ERROR, Last: None)
Processing feed 247/1263: The Marginalian
  Feed URL: https://www.brainpickings.org/feed/
  Result: 20 posts/year (Status: OK, Last: 2026-01-02)
Processing feed 248/1263: lines and colors :: a blog about drawing, painting, illustration, comics, concept art and other visual arts
  Feed URL: http://www.linesandcolors.com/feed/
  Result: 6 posts/year (Status: OK, Last: 2026-01-01)
Processing feed 249/1263: TV Tropes - Most Popular Articles
  Feed URL: https://tvtropes.org/pmwiki/rss-feed.php?filter=most_popular
  Result: 6 posts/year (Status: OK, Last: 2026-01-01)
Processing feed 250/1263: 채널예스 : 대중문화
  Feed URL: http://ch.yes24.com/feed/column/2165
  Result: 0 posts/year (Status: ERROR, Last: None)
Processing feed 251/1263: Krebs on Security
  Feed URL: http://krebsonsecurity.com/feed/
  Result: 10 posts/year (Status: OK, Last: 2026-01-02)
Processing feed 252/1263: 채널예스 : 책
  Feed URL: http://ch.yes24.com/feed/column/2162
  Result: 0 posts/year (Status: ERROR, Last: None)
Processing feed 253/1263: 킬크로그 (killklog)
  Feed URL: http://cusee.net/rss
  Result: 10 posts/year (Status: OK, Last: 2025-04-07)
Processing feed 254/1263: The Space Review
  Feed URL: http://www.thespacereview.com/articles.xml
  Result: 214 posts/year (Status: OK, Last: 2025-12-22)
Processing feed 255/1263: 지도와 Web2.0 그리고 한국의 미래
  Feed URL: http://feeds2.feedburner.com/blogspot/InternetMap
  Result: 10 posts/year (Status: OK, Last: 2025-12-29)
Processing feed 256/1263: OnLondon
  Feed URL: https://onlondon.co.uk/feed/
  Result: 8 posts/year (Status: OK, Last: 2026-01-02)
Processing feed 257/1263: Articles
  Feed URL: https://rss.diffbot.com/rss?url=https://jbee.io/articles
  Result: 0 posts/year (Status: ERROR, Last: None)
Processing feed 258/1263: 살려면 돌아다녀야 한다 돌아다니는 것만이 살 길이다
  Feed URL: http://blog.rss.naver.com/dondogi.xml
  Result: 50 posts/year (Status: OK, Last: 2026-01-02)
Processing feed 259/1263: TED Blog
  Feed URL: http://feeds.feedburner.com/tedblog
  Result: 20 posts/year (Status: OK, Last: 2025-12-12)
Processing feed 260/1263: BIG by Matt Stoller
  Feed URL: https://mattstoller.substack.com/feed/
  Result: 20 posts/year (Status: OK, Last: 2025-12-31)
Processing feed 261/1263: CSS { In Real Life }
  Feed URL: https://css-irl.info/rss.xml
  Result: 7 posts/year (Status: OK, Last: 2025-09-28)
Processing feed 262/1263: Improbable Research
  Feed URL: http://improbable.com/feed/
  Result: 4 posts/year (Status: OK, Last: 2025-12-30)
Processing feed 263/1263: Stepcase Lifehack
  Feed URL: http://www.lifehack.org/feed
  Result: 12 posts/year (Status: OK, Last: 2025-11-26)
Processing feed 264/1263: Opinion – Communications of the ACM
  Feed URL: http://cacm.acm.org/opinion.rss
  Result: 0 posts/year (Status: ERROR, Last: None)
Processing feed 265/1263: Inuit Blogged
  Feed URL: http://inuit.co.kr/rss
  Result: 10 posts/year (Status: OK, Last: 2025-12-27)
Processing feed 266/1263: Google Research Blog
  Feed URL: http://googleresearch.blogspot.com/atom.xml
  Result: 0 posts/year (Status: OLD, Last: 2024-03-29)
Processing feed 267/1263: Chris Coyier
  Feed URL: http://feeds2.feedburner.com/ChrisCoyier
  Result: 12 posts/year (Status: OK, Last: 2026-01-02)
Processing feed 268/1263: 자작나무통신
  Feed URL: http://www.betulo.co.kr/rss
  Result: 10 posts/year (Status: OK, Last: 2026-01-02)
Processing feed 269/1263: Overcoming Bias
  Feed URL: http://www.overcomingbias.com/feed
  Result: 20 posts/year (Status: OK, Last: 2025-12-30)
Processing feed 270/1263: London SE1
  Feed URL: http://www.london-se1.co.uk/news/rss
  Result: 6 posts/year (Status: OK, Last: 2025-01-31)
Processing feed 271/1263: Dr Scott Hollier – Digital Access Specialist
  Feed URL: http://hollier.info/feed/
  Result: 0 posts/year (Status: ERROR, Last: None)
Processing feed 272/1263: 클리앙 : 자료실
  Feed URL: https://rss.diffbot.com/rss?url=https://www.clien.net/service/board/pds
  Result: 0 posts/year (Status: ERROR, Last: None)
Processing feed 273/1263: Standard Ebooks - Newest Ebooks
  Feed URL: https://standardebooks.org/feeds/atom/new-releases
  Result: 15 posts/year (Status: OK, Last: 2026-01-01)
Processing feed 274/1263: Business | The Guardian
  Feed URL: http://www.guardian.co.uk/business/rss
  Result: 40 posts/year (Status: OK, Last: 2026-01-03)
Processing feed 275/1263: 위스키당
  Feed URL: https://rss.diffbot.com/rss?url=https://damoang.net/whiskey
  Result: 0 posts/year (Status: ERROR, Last: None)
Processing feed 276/1263: Lobsters: Top Stories of the Past Week
  Feed URL: https://lobste.rs/top/rss
  Result: 25 posts/year (Status: OK, Last: 2026-01-02)
Processing feed 277/1263: Secret London
  Feed URL: http://secretldn.com/feed/
  Result: 9 posts/year (Status: OK, Last: 2026-01-02)
Processing feed 278/1263: Cycling UK Forum
  Feed URL: https://forum.cyclinguk.org/app.php/feed/topics?sid=741a57a35bb2ba7efc6307b71d2d3f27
  Result: 15 posts/year (Status: OK, Last: 2026-01-03)
Processing feed 279/1263: House of Commons Library
  Feed URL: https://commonslibrary.parliament.uk/feed/
  Result: 10 posts/year (Status: OK, Last: 2025-12-29)
Processing feed 280/1263: nature, conservation and wildlife watching
  Feed URL: https://rss.diffbot.com/rss?url=https://www.discoverwildlife.com/
  Result: 0 posts/year (Status: OLD, Last: None)
Processing feed 281/1263: Technology | The Guardian
  Feed URL: http://www.theguardian.com/technology/rss
  Result: 24 posts/year (Status: OK, Last: 2026-01-03)
Processing feed 282/1263: Music | The Guardian
  Feed URL: http://feeds.guardian.co.uk/theguardian/music/rss
  Result: 29 posts/year (Status: OK, Last: 2026-01-03)
Processing feed 283/1263: Money | The Guardian
  Feed URL: http://feeds.guardian.co.uk/theguardian/money/rss
  Result: 25 posts/year (Status: OK, Last: 2026-01-03)
Processing feed 284/1263: Universe Today
  Feed URL: http://www.universetoday.com/universetoday.xml
  Result: 20 posts/year (Status: OK, Last: 2026-01-02)
Processing feed 285/1263: Which? News
  Feed URL: http://www.which.co.uk/feeds/news.xml
  Result: 30 posts/year (Status: OK, Last: 2025-12-01)
Processing feed 286/1263: 다바앙
  Feed URL: https://rss.diffbot.com/rss?url=https://damoang.net/coffee
  Result: 26 posts/year (Status: OK, Last: 2026-01-01)
Processing feed 287/1263: Techdirt
  Feed URL: http://www.techdirt.com/techdirt_rss.xml
  Result: 10 posts/year (Status: OK, Last: 2026-01-02)
Processing feed 288/1263: Spitalfields Life
  Feed URL: http://spitalfieldslife.com/feed/
  Result: 10 posts/year (Status: OK, Last: 2026-01-03)
Processing feed 289/1263: Astronomy, Astrophotography & Space News
  Feed URL: https://rss.diffbot.com/rss?url=https://www.skyatnightmagazine.com/
  Result: 0 posts/year (Status: ERROR, Last: None)
Processing feed 290/1263: null program
  Feed URL: http://nullprogram.com/feed/
  Result: 8 posts/year (Status: OK, Last: 2026-01-01)
Processing feed 291/1263: Kagi News - Business
  Feed URL: https://kite.kagi.com/business.xml
  Result: 12 posts/year (Status: OK, Last: 2026-01-02)
Processing feed 292/1263: Eli Bendersky's website
  Feed URL: http://eli.thegreenplace.net/feed/
  Result: 5 posts/year (Status: OK, Last: 2026-01-01)
Processing feed 293/1263: Riot Games Tech Blog News Feed
  Feed URL: http://engineering.riotgames.com/rss.xml
  Result: 0 posts/year (Status: OLD, Last: 2024-02-27)
Processing feed 294/1263: HN Readings
  Feed URL: https://kill-the-newsletter.com/feeds/s3j3tkrd68lwidt4410k.xml
  Result: 0 posts/year (Status: EMPTY, Last: None)
Processing feed 295/1263: Knowable Magazine
  Feed URL: https://www.knowablemagazine.org/rss
  Result: 0 posts/year (Status: OLD, Last: None)
Processing feed 296/1263: Tweag - Nix blog
  Feed URL: https://www.tweag.io/rss-nix.xml
  Result: 0 posts/year (Status: OLD, Last: 2024-09-05)
Processing feed 297/1263: Random ASCII – tech blog of Bruce Dawson
  Feed URL: http://randomascii.wordpress.com/feed/
  Result: 7 posts/year (Status: OK, Last: 2025-11-11)
Processing feed 298/1263: ClickHouse Blog
  Feed URL: https://clickhouse.com/rss.xml
  Result: 254 posts/year (Status: OK, Last: 2026-01-01)
Processing feed 299/1263: lcamtuf’s thing
  Feed URL: https://lcamtuf.substack.com/feed
  Result: 20 posts/year (Status: OK, Last: 2025-12-26)
Processing feed 300/1263: Natalie the Nerd's blog
  Feed URL: https://blog.nataliethenerd.com/rss/
  Result: 9 posts/year (Status: OK, Last: 2025-12-17)
Processing feed 301/1263: MakeUseOf.com » Linux
  Feed URL: http://www.makeuseof.com/service/linux/feed/
  Result: 10 posts/year (Status: OK, Last: 2026-01-03)
Processing feed 302/1263: Tech Blog
  Feed URL: http://tech.marksblogg.com/feeds/all.atom.xml
  Result: 25 posts/year (Status: OK, Last: 2025-12-08)
Processing feed 303/1263: Kagi News - World
  Feed URL: https://kite.kagi.com/world.xml
  Result: 12 posts/year (Status: OK, Last: 2026-01-03)
Processing feed 304/1263: Project Zero
  Feed URL: https://projectzero.google/feed.xml
  Result: 10 posts/year (Status: OK, Last: 2025-12-16)
Processing feed 305/1263: microkerneldude
  Feed URL: http://microkerneldude.wordpress.com/feed/
  Result: 1 posts/year (Status: OK, Last: 2025-04-27)
Processing feed 306/1263: Science News Explores
  Feed URL: https://www.snexplores.org/feed
  Result: 20 posts/year (Status: OK, Last: 2026-01-02)
Processing feed 307/1263: Infrequently Noted
  Feed URL: http://alex.dojotoolkit.org/?feed=atom
  Result: 0 posts/year (Status: ERROR, Last: None)
Processing feed 308/1263: CONNECTING HEARTS! 커뮤니티 포털 디시인사이드입니다.
  Feed URL: https://rss.diffbot.com/rss?url=https://m.dcinside.com/
  Result: 0 posts/year (Status: ERROR, Last: None)
Processing feed 309/1263: Writing - rachelbythebay
  Feed URL: https://rachelbythebay.com/w/atom.xml
  Result: 27 posts/year (Status: OK, Last: 2025-11-24)
Processing feed 310/1263: Spotify Engineering
  Feed URL: http://labs.spotify.com/feed/
  Result: 5 posts/year (Status: OK, Last: 2025-12-09)
Processing feed 311/1263: Blog on Tailscale
  Feed URL: https://tailscale.com/blog/index.xml
  Result: 15 posts/year (Status: OK, Last: 2025-12-19)
Processing feed 312/1263: MongoDB | Blog
  Feed URL: https://www.mongodb.com/blog/rss
  Result: 50 posts/year (Status: OK, Last: 2025-12-22)
Processing feed 313/1263: NOEMA
  Feed URL: https://www.noemamag.com/feed/
  Result: 10 posts/year (Status: OK, Last: 2025-12-18)
Processing feed 314/1263: software articles by efron licht
  Feed URL: https://rss.diffbot.com/rss?url=https://eblog.fly.dev/index.html
  Result: 0 posts/year (Status: ERROR, Last: None)
Processing feed 315/1263: Armin Ronacher's Thoughts and Writings
  Feed URL: http://lucumr.pocoo.org/feed.atom
  Result: 10 posts/year (Status: OK, Last: 2025-12-23)
Processing feed 316/1263: Ahmad Alfy
  Feed URL: https://alfy.blog/feed.xml
  Result: 5 posts/year (Status: OK, Last: 2025-10-31)
Processing feed 317/1263: TigerBeetle Blog
  Feed URL: https://tigerbeetle.com/blog/atom.xml
  Result: 11 posts/year (Status: OK, Last: 2025-11-28)
Processing feed 318/1263: Climate Drift
  Feed URL: https://climatedrift.substack.com/feed
  Result: 20 posts/year (Status: OK, Last: 2026-01-01)
Processing feed 319/1263: Guillaume Gomez's RSS (blog posts about IT and Rust)
  Feed URL: https://blog.guillaume-gomez.fr/rss
  Result: 5 posts/year (Status: OK, Last: 2025-12-15)
Processing feed 320/1263: DoorDash
  Feed URL: https://careersatdoordash.com/feed/
  Result: 0 posts/year (Status: ERROR, Last: None)
Processing feed 321/1263: 피렌체의 식탁
  Feed URL: https://kill-the-newsletter.com/feeds/aip8onivzyqw2fqv.xml
  Result: 21 posts/year (Status: OK, Last: 2026-01-01)
Processing feed 322/1263: blog.allegro.tech
  Feed URL: https://blog.allegro.tech/feed.xml
  Result: 10 posts/year (Status: OK, Last: 2025-12-21)
Processing feed 323/1263: bitonic's blog.
  Feed URL: https://mazzo.li/rss.xml
  Result: 4 posts/year (Status: OK, Last: 2025-10-17)
Processing feed 324/1263: erock's devlog
  Feed URL: https://bower.sh/rss
  Result: 6 posts/year (Status: OK, Last: 2025-12-02)
Processing feed 325/1263: Kagi News - Gaming
  Feed URL: https://kite.kagi.com/gaming.xml
  Result: 12 posts/year (Status: OK, Last: 2026-01-03)
Processing feed 326/1263: Outreach Newsletter
  Feed URL: https://kill-the-newsletter.com/feeds/6q3nssjk6sjzqn3jq19p.xml
  Result: 2 posts/year (Status: OK, Last: 2025-12-15)
Processing feed 327/1263: Tweag - Engineering blog
  Feed URL: https://www.tweag.io/rss.xml
  Result: 20 posts/year (Status: OK, Last: 2025-12-18)
Processing feed 328/1263: Stripe Blog
  Feed URL: https://stripe.com/blog/feed.rss
  Result: 10 posts/year (Status: OK, Last: 2025-12-18)
Processing feed 329/1263: tracks and traces
  Feed URL: https://exclav.es/index.xml
  Result: 5 posts/year (Status: OK, Last: 2025-12-22)
Processing feed 330/1263: Good Movies to Watch – Highly-Rated Movies on Amazon Prime
  Feed URL: https://rss.diffbot.com/rss?url=https://agoodmovietowatch.com/all/?service%3Dusa-amazon-prime%26sort%3Dtop
  Result: 0 posts/year (Status: ERROR, Last: None)
Processing feed 331/1263: Data Engineering Blog
  Feed URL: https://sspaeti.com/index.xml
  Result: 10 posts/year (Status: OK, Last: 2025-12-30)
Processing feed 332/1263: Engineering | Uber Blog
  Feed URL: https://www.uber.com/blog/engineering/rss/
  Result: 0 posts/year (Status: ERROR, Last: None)
Processing feed 333/1263: cbloom rants
  Feed URL: http://cbloomrants.blogspot.com/feeds/posts/default
  Result: 0 posts/year (Status: OLD, Last: 2023-10-13)
Processing feed 334/1263: Friendly Bit - Web development blog
  Feed URL: https://friendlybit.com/feed/
  Result: 3 posts/year (Status: OK, Last: 2025-12-28)
Processing feed 335/1263: Colin Marshall
  Feed URL: http://blog.colinmarshall.org/?feed=rss2
  Result: 10 posts/year (Status: OK, Last: 2026-01-01)
Processing feed 336/1263: Kagi News - Science
  Feed URL: https://kite.kagi.com/science.xml
  Result: 12 posts/year (Status: OK, Last: 2026-01-03)
Processing feed 337/1263: bicortex
  Feed URL: https://bicortex.com/bicortex/feed/
  Result: 0 posts/year (Status: OLD, Last: 2024-12-28)
Processing feed 338/1263: Kagi News - Technology
  Feed URL: https://kite.kagi.com/tech.xml
  Result: 12 posts/year (Status: OK, Last: 2026-01-02)
Processing feed 339/1263: Fun With Functions
  Feed URL: https://funwithfunctions.com/rss.xml
  Result: 1 posts/year (Status: OK, Last: 2025-09-30)
Processing feed 340/1263: Sylvain Kerkour
  Feed URL: https://opensourceweekly.org/index.xml
  Result: 0 posts/year (Status: ERROR, Last: None)
Processing feed 341/1263: The Cloudflare Blog
  Feed URL: http://blog.cloudflare.com/rss.xml
  Result: 0 posts/year (Status: ERROR, Last: None)
Processing feed 342/1263: Agentultra
  Feed URL: https://agentultra.com/feed.xml
  Result: 7 posts/year (Status: OK, Last: 2025-11-24)
Processing feed 343/1263: qouteall notes Blog
  Feed URL: https://qouteall.fun/qouteall-blog/rss.xml
  Result: 11 posts/year (Status: OK, Last: 2025-12-20)
Processing feed 344/1263: BLOG@CACM – Communications of the ACM
  Feed URL: http://cacm.acm.org/blogs/blog-cacm.rss
  Result: 0 posts/year (Status: ERROR, Last: None)
Processing feed 345/1263: ACM Queue Feature Articles
  Feed URL: http://acmqueue.com/queue.xml
  Result: 0 posts/year (Status: ERROR, Last: None)
Processing feed 346/1263: Opinion – Communications of the ACM
  Feed URL: http://cacm.acm.org/opinion.rss
  Result: 0 posts/year (Status: ERROR, Last: None)
Processing feed 347/1263: Potentials, IEEE - new TOC
  Feed URL: http://ieeexplore.ieee.org/rss/TOC45.XML
  Result: 13 posts/year (Status: OK, Last: 2025-11-07)
Processing feed 348/1263: InfoQ
  Feed URL: http://www.infoq.com/rss/rss.action
  Result: 15 posts/year (Status: OK, Last: 2026-01-03)
Processing feed 349/1263: Spectrum, IEEE - new TOC
  Feed URL: http://ieeexplore.ieee.org/rss/TOC6.XML
  Result: 23 posts/year (Status: OK, Last: 2025-12-10)
Processing feed 350/1263: IEEE Annals of the History of Computing - new TOC
  Feed URL: http://ieeexplore.ieee.org/rss/TOC85.XML
  Result: 25 posts/year (Status: OK, Last: 2025-12-23)
Processing feed 351/1263: Transactions on Computers - new TOC
  Feed URL: http://ieeexplore.ieee.org/rss/TOC12.XML
  Result: 29 posts/year (Status: OK, Last: 2025-11-14)
Processing feed 352/1263: Global Voices in English » Feature
  Feed URL: http://globalvoicesonline.org/-/type/feature/feed/
  Result: 15 posts/year (Status: OK, Last: 2026-01-01)
Processing feed 353/1263: 굴러간당-시즌2 : 네이버 카페
  Feed URL: https://rss.diffbot.com/rss?url=https://m.cafe.naver.com/bestdrivercrew.cafe?tc%3Dshared_link
  Result: 0 posts/year (Status: ERROR, Last: None)
Processing feed 354/1263: themindcircle
  Feed URL: http://onemorepost.com/feed/
  Result: 0 posts/year (Status: ERROR, Last: None)
Processing feed 355/1263: Spectrum, IEEE - new TOC
  Feed URL: http://ieeexplore.ieee.org/rss/TOC6.XML
  Result: 23 posts/year (Status: OK, Last: 2025-12-10)
Processing feed 356/1263: Freethink
  Feed URL: https://www.freethink.com/feed/all
  Result: 20 posts/year (Status: OK, Last: 2025-12-09)
Processing feed 357/1263: 클리앙 : 키보드당
  Feed URL: https://rss.diffbot.com/rss?url=https://www.clien.net/service/board/cm_keyboard
  Result: 0 posts/year (Status: ERROR, Last: None)
Processing feed 358/1263: The Code Project Latest Articles
  Feed URL: http://www.codeproject.com/webservices/articlerss.aspx?cat=1
  Result: 0 posts/year (Status: ERROR, Last: None)
Processing feed 359/1263: Wirecutter: Reviews for the Real World
  Feed URL: http://feeds.feedburner.com/TheWirecutter
  Result: 0 posts/year (Status: ERROR, Last: None)
Processing feed 360/1263: 전체기사 : 미래&과학 : 뉴스 : 한겨레 뉴스 - 인터넷한겨레
  Feed URL: http://www.hani.co.kr/rss/science/
  Result: 0 posts/year (Status: OLD, Last: None)
Processing feed 361/1263: 클리앙 : 개발한당
  Feed URL: https://rss.diffbot.com/rss?url=https://www.clien.net/service/board/cm_app
  Result: 30 posts/year (Status: OK, Last: 2025-12-30)
Processing feed 362/1263: Lemmy - technology
  Feed URL: https://lemmy.ml/feeds/c/technology.xml?sort=Hot
  Result: 20 posts/year (Status: OK, Last: 2026-01-03)
Processing feed 363/1263: 뉴스톱 - 전체기사
  Feed URL: http://www.newstof.com/rss/allArticle.xml
  Result: 50 posts/year (Status: OK, Last: 2026-01-02)
Processing feed 364/1263: 오마이뉴스 - 여행
  Feed URL: http://rss.ohmynews.com/rss/travel.xml
  Result: 20 posts/year (Status: OK, Last: 2026-01-03)
Processing feed 365/1263: BBC News
  Feed URL: http://newsrss.bbc.co.uk/rss/newsonline_uk_edition/education/rss.xml
  Result: 19 posts/year (Status: OK, Last: 2026-01-02)
Processing feed 366/1263: ProPublica
  Feed URL: http://feeds.propublica.org/propublica/main
  Result: 20 posts/year (Status: OK, Last: 2025-12-31)
Processing feed 367/1263: Longreads
  Feed URL: http://longreads.com/rss
  Result: 10 posts/year (Status: OK, Last: 2026-01-02)
Processing feed 368/1263: 초록섬
  Feed URL: http://blog.rss.naver.com/77attic.xml
  Result: 50 posts/year (Status: OK, Last: 2026-01-02)
Processing feed 369/1263: GYUHANG.NET
  Feed URL: http://gyuhang.net/rss
  Result: 0 posts/year (Status: ERROR, Last: None)
Processing feed 370/1263: GottaBeMobile.com » Editorials
  Feed URL: http://www.gottabemobile.com/category/editorials/feed
  Result: 0 posts/year (Status: OLD, Last: 2024-10-01)
Processing feed 371/1263: Life is Good
  Feed URL: http://feeds.feedburner.com/tistory-lifeisgood
  Result: 0 posts/year (Status: OLD, Last: 2023-10-17)
Processing feed 372/1263: Oxford English Dictionary
  Feed URL: http://www.oed.com/rss.xml
  Result: 0 posts/year (Status: ERROR, Last: None)
Processing feed 373/1263: 다초리의 숲속여행
  Feed URL: http://blog.rss.naver.com/dachori
  Result: 50 posts/year (Status: OK, Last: 2025-12-31)
Processing feed 374/1263: 오마이뉴스 - 여행
  Feed URL: http://rss.ohmynews.com/rss/travel.xml
  Result: 20 posts/year (Status: OK, Last: 2026-01-03)
Processing feed 375/1263: 들꽃편지
  Feed URL: http://blog.rss.naver.com/dhfodhfo00
  Result: 50 posts/year (Status: OK, Last: 2025-12-31)
Processing feed 376/1263: lines and colors :: a blog about drawing, painting, illustration, comics, concept art and other visual arts
  Feed URL: http://www.linesandcolors.com/feed/
  Result: 6 posts/year (Status: OK, Last: 2026-01-01)
Processing feed 377/1263: NOVA | PBS
  Feed URL: http://www.pbs.org/wgbh/nova/rss/nova.xml
  Result: 6 posts/year (Status: OK, Last: 2025-11-13)
Processing feed 378/1263: SkyandTelescope.com's Most Recent Articles
  Feed URL: http://www.skyandtelescope.com/MostRecent.rss
  Result: 0 posts/year (Status: ERROR, Last: None)
Processing feed 379/1263: Quotes of the Day
  Feed URL: http://www.quotationspage.com/data/qotd.rss
  Result: 12 posts/year (Status: OK, Last: 2026-01-03)
Processing feed 380/1263: Omg! Ubuntu!
  Feed URL: http://feeds.feedburner.com/d0od
  Result: 18 posts/year (Status: OK, Last: 2026-01-02)
Processing feed 381/1263: Centauri Dreams — Imagining and Planning Interstellar Exploration
  Feed URL: https://follow.it/centauri-dreams-imagining-and-planning-interstellar-exploration/rss
  Result: 20 posts/year (Status: OK, Last: 2026-01-01)
Processing feed 382/1263: The Space Review
  Feed URL: http://www.thespacereview.com/articles.xml
  Result: 214 posts/year (Status: OK, Last: 2025-12-22)
Processing feed 383/1263: 미술관 속 비밀도서관
  Feed URL: http://blog.rss.naver.com/goldsunriver.xml
  Result: 24 posts/year (Status: OK, Last: 2025-07-18)
Processing feed 384/1263: The Code Project Latest Articles
  Feed URL: http://www.codeproject.com/webservices/articlerss.aspx?cat=1
  Result: 0 posts/year (Status: ERROR, Last: None)
Processing feed 385/1263: 루리카의 PDA 활용기 (SPH-M4650 / M4655)
  Feed URL: http://ruryca.tistory.com/rss
  Result: 10 posts/year (Status: OK, Last: 2025-12-28)
Processing feed 386/1263: Google Research Blog
  Feed URL: http://googleresearch.blogspot.com/atom.xml
  Result: 0 posts/year (Status: OLD, Last: 2024-03-29)
Processing feed 387/1263: Lambda the Ultimate - Programming Languages Weblog
  Feed URL: http://lambda-the-ultimate.org/rss.xml
  Result: 0 posts/year (Status: ERROR, Last: None)
Processing feed 388/1263: NASA Image of the Day (Large)
  Feed URL: http://www.nasa.gov/rss/lg_image_of_the_day.rss
  Result: 60 posts/year (Status: OK, Last: 2026-01-02)
Processing feed 389/1263: Ubergizmo
  Feed URL: http://www.ubergizmo.com/index.xml
  Result: 30 posts/year (Status: OK, Last: 2026-01-02)
Processing feed 390/1263: Overcoming Bias
  Feed URL: http://www.overcomingbias.com/feed
  Result: 20 posts/year (Status: OK, Last: 2025-12-30)
Processing feed 391/1263: 미디어스 - 최근인기기사
  Feed URL: http://www.mediaus.co.kr/rss/clickTop.xml
  Result: 10 posts/year (Status: OK, Last: 2026-01-03)
Processing feed 392/1263: 박규영_자연의 비경
  Feed URL: http://blog.rss.naver.com/photoky.xml
  Result: 0 posts/year (Status: OLD, Last: 2023-07-14)
Processing feed 393/1263: Thoughtworks Insights
  Feed URL: http://www.thoughtworks.com/rss/insights.xml
  Result: 194 posts/year (Status: OK, Last: 2025-12-18)
Processing feed 394/1263: 자연과 꽃과 여행 ... ♥
  Feed URL: http://blog.rss.naver.com/cychang2
  Result: 50 posts/year (Status: OK, Last: 2026-01-03)
Processing feed 395/1263: Quanta Magazine
  Feed URL: http://www.quantamagazine.org/feed/
  Result: 5 posts/year (Status: OK, Last: 2025-12-22)
Processing feed 396/1263: 거리의 풍경
  Feed URL: http://blog.rss.naver.com/unviajero.xml
  Result: 50 posts/year (Status: OK, Last: 2026-01-02)
Processing feed 397/1263: 살려면 돌아다녀야 한다 돌아다니는 것만이 살 길이다
  Feed URL: http://blog.rss.naver.com/dondogi.xml
  Result: 50 posts/year (Status: OK, Last: 2026-01-02)
Processing feed 398/1263: Baymard Institute
  Feed URL: http://feeds.baymard.com/baymard
  Result: 10 posts/year (Status: OK, Last: 2025-12-16)
Processing feed 399/1263: News Shopper | Bexley
  Feed URL: http://www.newsshopper.co.uk/news/bexley/rss/
  Result: 50 posts/year (Status: OK, Last: 2026-01-03)
Processing feed 400/1263: Features | The Guardian
  Feed URL: http://www.guardian.co.uk/tone/features/rss
  Result: 20 posts/year (Status: OK, Last: 2026-01-03)
Processing feed 401/1263: TechCrunch
  Feed URL: http://feeds.feedburner.com/Techcrunch
  Result: 1 posts/year (Status: OK, Last: 2025-12-04)
Processing feed 402/1263: BBC News
  Feed URL: http://feeds.bbci.co.uk/news/world/rss.xml
  Result: 28 posts/year (Status: OK, Last: 2026-01-03)
Processing feed 403/1263: BBC News
  Feed URL: http://newsrss.bbc.co.uk/rss/newsonline_world_edition/front_page/rss.xml
  Result: 34 posts/year (Status: OK, Last: 2026-01-03)
Processing feed 404/1263: Environment news, comment and analysis | guardian.co.uk
  Feed URL: http://feeds.guardian.co.uk/theguardian/environment/rss
  Result: 25 posts/year (Status: OK, Last: 2026-01-03)
Processing feed 405/1263: Phoronix
  Feed URL: http://www.phoronix.com/rss.php
  Result: 32 posts/year (Status: OK, Last: 2026-01-03)
Processing feed 406/1263: 오마이뉴스 - 사회
  Feed URL: http://rss.ohmynews.com/rss/society.xml
  Result: 20 posts/year (Status: OK, Last: 2026-01-03)
Processing feed 407/1263: Discover Blogs
  Feed URL: http://feeds.feedburner.com/DiscoverBlogs
  Result: 20 posts/year (Status: OK, Last: 2026-01-02)
Processing feed 408/1263: freshnews.org - most clicked links
  Feed URL: http://feeds.feedburner.com/FreshnewsMostClicked
  Result: 5 posts/year (Status: OK, Last: 2026-01-03)
Processing feed 409/1263: The Independent
  Feed URL: http://www.independent.co.uk/rss
  Result: 100 posts/year (Status: OK, Last: 2026-01-03)
Processing feed 410/1263: Vox
  Feed URL: http://www.vox.com/rss/index.xml
  Result: 10 posts/year (Status: OK, Last: 2026-01-03)
Processing feed 411/1263: Semafor
  Feed URL: https://www.semafor.com/rss.xml
  Result: 109 posts/year (Status: OK, Last: 2026-01-03)
Processing feed 412/1263: InfoQ
  Feed URL: http://www.infoq.com/rss/rss.action
  Result: 15 posts/year (Status: OK, Last: 2026-01-03)
Processing feed 413/1263: Techdirt
  Feed URL: http://www.techdirt.com/techdirt_rss.xml
  Result: 10 posts/year (Status: OK, Last: 2026-01-02)
Processing feed 414/1263: BBC News
  Feed URL: http://newsrss.bbc.co.uk/rss/newsonline_world_edition/technology/rss.xml
  Result: 56 posts/year (Status: OK, Last: 2026-01-02)
Processing feed 415/1263: ScienceDaily: Latest Science News
  Feed URL: http://www.sciencedaily.com/newsfeed.xml
  Result: 60 posts/year (Status: OK, Last: 2026-01-03)
Processing feed 416/1263: 미디어오늘 - 전체기사
  Feed URL: http://www.mediatoday.co.kr/rss/allArticle.xml
  Result: 50 posts/year (Status: OK, Last: 2026-01-03)
Processing feed 417/1263: 주요기사 : 뉴스 : 한겨레 뉴스 - 인터넷한겨레
  Feed URL: http://www.hani.co.kr/rss/lead/
  Result: 0 posts/year (Status: ERROR, Last: None)
Processing feed 418/1263: The Independent UK
  Feed URL: http://www.independent.co.uk/news/uk/rss
  Result: 16 posts/year (Status: OK, Last: 2026-01-03)
Processing feed 419/1263: Engadget
  Feed URL: http://www.engadget.com/rss.xml
  Result: 50 posts/year (Status: OK, Last: 2026-01-03)
Processing feed 420/1263: Slashdot
  Feed URL: http://rss.slashdot.org/Slashdot/slashdot
  Result: 15 posts/year (Status: OK, Last: 2026-01-03)
Processing feed 421/1263: Which? News
  Feed URL: http://www.which.co.uk/feeds/news.xml
  Result: 30 posts/year (Status: OK, Last: 2025-12-01)
Processing feed 422/1263: BBC News
  Feed URL: http://newsrss.bbc.co.uk/rss/newsonline_uk_edition/england/london/rss.xml
  Result: 35 posts/year (Status: OK, Last: 2026-01-03)
Processing feed 423/1263: Hacker News
  Feed URL: http://news.ycombinator.com/rss
  Result: 30 posts/year (Status: OK, Last: 2026-01-03)
Processing feed 424/1263: Ars Technica - All content
  Feed URL: http://feeds.arstechnica.com/arstechnica/index/
  Result: 20 posts/year (Status: OK, Last: 2026-01-02)
Processing feed 425/1263: 뉴스톱 - 전체기사
  Feed URL: http://www.newstof.com/rss/allArticle.xml
  Result: 50 posts/year (Status: OK, Last: 2026-01-02)
Processing feed 426/1263: TweakTown News RSS Feed
  Feed URL: http://feeds.feedburner.com/TweaktownNewsRss
  Result: 15 posts/year (Status: OK, Last: 2026-01-02)
Processing feed 427/1263: 미디어스 - 최근인기기사
  Feed URL: http://www.mediaus.co.kr/rss/clickTop.xml
  Result: 10 posts/year (Status: OK, Last: 2026-01-03)
Processing feed 428/1263: Wired Top Stories
  Feed URL: http://www.wired.com/news/feeds/rss2/0,2610,,00.xml
  Result: 0 posts/year (Status: ERROR, Last: None)
Processing feed 429/1263: LessWrong
  Feed URL: http://lesswrong.com/.rss
  Result: 10 posts/year (Status: OK, Last: 2026-01-03)
Processing feed 430/1263: reddit: the front page of the internet
  Feed URL: http://programming.reddit.com/.rss
  Result: 25 posts/year (Status: OK, Last: 2026-01-03)
Processing feed 431/1263: Mashable!
  Feed URL: http://feeds2.feedburner.com/Mashable
  Result: 100 posts/year (Status: OK, Last: 2026-01-03)
Processing feed 432/1263: 많이본기사 : 뉴스 : 한겨레 뉴스 - 인터넷한겨레
  Feed URL: http://www.hani.co.kr/rss/newsrank/
  Result: 70 posts/year (Status: OK, Last: 2026-01-03)
Processing feed 433/1263: BBC News
  Feed URL: http://newsrss.bbc.co.uk/rss/newsonline_uk_edition/uk/rss.xml
  Result: 39 posts/year (Status: OK, Last: 2026-01-03)
Processing feed 434/1263: Best of The Atlantic
  Feed URL: http://feeds.feedburner.com/Best-Of-The-Atlantic
  Result: 23 posts/year (Status: OK, Last: 2026-01-03)
Processing feed 435/1263: TechBlogPosts
  Feed URL: https://techblogposts.com/rss.xml
  Result: 10 posts/year (Status: OK, Last: 2026-01-02)
Processing feed 436/1263: News – Communications of the ACM
  Feed URL: http://cacm.acm.org/news.rss
  Result: 0 posts/year (Status: ERROR, Last: None)
Processing feed 437/1263: Atlas Obscura
  Feed URL: http://atlasobscura.com/rss.xml
  Result: 24 posts/year (Status: OK, Last: 2026-01-02)
Processing feed 438/1263: BBC News
  Feed URL: http://news.bbc.co.uk/rss/newsonline_world_edition/entertainment/rss.xml
  Result: 35 posts/year (Status: OK, Last: 2026-01-03)
Processing feed 439/1263: Ancient Origins - Unravelling the Mysteries of the Past
  Feed URL: http://www.ancient-origins.net/rss.xml
  Result: 10 posts/year (Status: OK, Last: 2025-12-25)
Processing feed 440/1263: National Review
  Feed URL: http://www.nationalreview.com/rss.xml
  Result: 20 posts/year (Status: OK, Last: 2026-01-03)
Processing feed 441/1263: 오늘의뉴스
  Feed URL: http://rss.etnews.co.kr/Section901.xml
  Result: 14 posts/year (Status: OK, Last: 2026-01-03)
Processing feed 442/1263: Lifehacker
  Feed URL: http://lifehacker.com/vip.xml
  Result: 100 posts/year (Status: OK, Last: 2026-01-02)
Processing feed 443/1263: MakeUseOf - iPhone
  Feed URL: http://www.makeuseof.com/service/ios/feed/
  Result: 10 posts/year (Status: OK, Last: 2026-01-01)
Processing feed 444/1263: Everything
  Feed URL: http://www.newyorker.com/services/mrss/feeds/everything.xml
  Result: 50 posts/year (Status: OK, Last: 2026-01-03)
Processing feed 445/1263: Informed Comment
  Feed URL: http://www.juancole.com/feed/atom
  Result: 9 posts/year (Status: OK, Last: 2026-01-03)
Processing feed 446/1263: GeekNews - 개발/기술/스타트업 뉴스 서비스
  Feed URL: https://news.hada.io/rss/news
  Result: 10 posts/year (Status: OK, Last: 2026-01-03)
Processing feed 447/1263: UK news | The Guardian
  Feed URL: http://feeds.theguardian.com/theguardian/uk-news/rss
  Result: 45 posts/year (Status: OK, Last: 2026-01-03)
Processing feed 448/1263: Hack a Day
  Feed URL: http://hackaday.com/feed/
  Result: 7 posts/year (Status: OK, Last: 2026-01-03)
Processing feed 449/1263: SPACE.com
  Feed URL: http://www.space.com/syn/space.xml
  Result: 50 posts/year (Status: OK, Last: 2026-01-03)
Processing feed 450/1263: The Verge
  Feed URL: http://www.theverge.com/rss/full.xml
  Result: 10 posts/year (Status: OK, Last: 2026-01-03)
Processing feed 451/1263: Time Out London
  Feed URL: http://www.timeout.com/london/blog/feed.rss
  Result: 100 posts/year (Status: OK, Last: 2026-01-02)
Processing feed 452/1263: The Independent
  Feed URL: http://www.independent.co.uk/rss
  Result: 100 posts/year (Status: OK, Last: 2026-01-03)
Processing feed 453/1263: CONNECTING HEARTS! 커뮤니티 포털 디시인사이드입니다.
  Feed URL: https://rss.diffbot.com/rss?url=https://www.dcinside.com/
  Result: 0 posts/year (Status: ERROR, Last: None)
Processing feed 454/1263: 자유게시판
  Feed URL: https://rss.diffbot.com/rss?url=https://damoang.net/free
  Result: 0 posts/year (Status: ERROR, Last: None)
Processing feed 455/1263: The Guardian
  Feed URL: https://www.theguardian.com/uk/rss
  Result: 145 posts/year (Status: OK, Last: 2026-01-03)
Processing feed 456/1263: 전체 BEST
  Feed URL: https://rss.diffbot.com/rss?url=https://m.ruliweb.com/best/all
  Result: 28 posts/year (Status: OK, Last: 2026-01-03)
Processing feed 457/1263: 추천글 게시판 : 클리앙
  Feed URL: https://rss.diffbot.com/rss?url=https://www.clien.net/service/recommend
  Result: 0 posts/year (Status: EMPTY, Last: None)
Processing feed 458/1263: 경향신문:전체기사
  Feed URL: http://www.khan.co.kr/rss/rssdata/total_news.xml
  Result: 50 posts/year (Status: OK, Last: 2026-01-03)
Processing feed 459/1263: 클리앙 : 모두의공원
  Feed URL: https://rss.diffbot.com/rss?url=https://www.clien.net/service/board/park
  Result: 0 posts/year (Status: ERROR, Last: None)
Processing feed 460/1263: Het bijstere spoor
  Feed URL: https://evertpot.com/atom.xml
  Result: 1 posts/year (Status: OK, Last: 2025-04-13)
Processing feed 461/1263: CodingItWrong.com
  Feed URL: http://codingitwrong.com/feed.xml
  Result: 0 posts/year (Status: OLD, Last: 2024-05-30)
Processing feed 462/1263: Chromium Blog
  Feed URL: http://blog.chromium.org/feeds/posts/default
  Result: 5 posts/year (Status: OK, Last: 2025-10-10)
Processing feed 463/1263: BlogGeek.me
  Feed URL: http://bloggeek.me/feed/
  Result: 10 posts/year (Status: OK, Last: 2025-12-22)
Processing feed 464/1263: Better world by better software
  Feed URL: http://glebbahmutov.com/blog/atom.xml
  Result: 30 posts/year (Status: OK, Last: 2025-12-30)
Processing feed 465/1263: Darice de Cuba
  Feed URL: http://www.darice.org/feed/
  Result: 10 posts/year (Status: OK, Last: 2025-11-20)
Processing feed 466/1263: drublic – Software Architecture - Hans Christian Reinl, Cologne
  Feed URL: https://drublic.de/feed.xml
  Result: 3 posts/year (Status: OK, Last: 2025-12-07)
Processing feed 467/1263: Baldur Bjarnason's Notes on the Web
  Feed URL: http://feedpress.me/baldurbjarnason
  Result: 10 posts/year (Status: OK, Last: 2025-12-31)
Processing feed 468/1263: Writings on Martin Kaptein
  Feed URL: https://www.martinkaptein.com/blog/index.xml
  Result: 0 posts/year (Status: OLD, Last: 2024-09-16)
Processing feed 469/1263: Digital blog | The Guardian
  Feed URL: http://www.guardian.co.uk/info/developer-blog/rss
  Result: 0 posts/year (Status: OLD, Last: 2024-09-23)
Processing feed 470/1263: foobartel.com :: All Posts
  Feed URL: https://foobartel.com/feed
  Result: 0 posts/year (Status: OLD, Last: 2023-11-30)
Processing feed 471/1263: Caffeinspiration
  Feed URL: https://alexanderell.is/index.xml
  Result: 5 posts/year (Status: OK, Last: 2025-11-16)
Processing feed 472/1263: CodePen
  Feed URL: http://blog.codepen.io/feed/
  Result: 63 posts/year (Status: OK, Last: 2025-12-15)
Processing feed 473/1263: AddyOsmani.com
  Feed URL: http://addyosmani.com/rss.xml
  Result: 10 posts/year (Status: OK, Last: 2025-12-29)
Processing feed 474/1263: micahflee
  Feed URL: https://micahflee.com/feed.xml
  Result: 15 posts/year (Status: OK, Last: 2025-11-29)
Processing feed 475/1263: Adactio: Articles
  Feed URL: http://adactio.com/articles/rss
  Result: 2 posts/year (Status: OK, Last: 2025-04-27)
Processing feed 476/1263: Ben Frain
  Feed URL: http://benfrain.com/feed/
  Result: 9 posts/year (Status: OK, Last: 2025-12-06)
Processing feed 477/1263: CSS Wizardry
  Feed URL: http://feeds.feedburner.com/csswizardry
  Result: 6 posts/year (Status: OK, Last: 2025-08-18)
Processing feed 478/1263: Design in government
  Feed URL: https://designnotes.blog.gov.uk/feed/
  Result: 5 posts/year (Status: OK, Last: 2025-12-09)
Processing feed 479/1263: Aaron Gustafson: Latest Posts & Links
  Feed URL: http://aaron-gustafson.com/atom.xml
  Result: 0 posts/year (Status: ERROR, Last: None)
Processing feed 480/1263: SpeakOfTheDevrel.Cloud: Doug Sillars
  Feed URL: https://dougsillars.com/feed/
  Result: 1 posts/year (Status: OK, Last: 2025-04-15)
Processing feed 481/1263: Firefox Nightly News
  Feed URL: https://blog.nightly.mozilla.org/feed/
  Result: 10 posts/year (Status: OK, Last: 2025-12-19)
Processing feed 482/1263: A Few Thoughts on Cryptographic Engineering
  Feed URL: https://blog.cryptographyengineering.com/feed/
  Result: 9 posts/year (Status: OK, Last: 2025-09-10)
Processing feed 483/1263: David Walsh Blog
  Feed URL: http://feeds.feedburner.com/Bludice
  Result: 3 posts/year (Status: OK, Last: 2025-11-20)
Processing feed 484/1263: Adrian Roselli
  Feed URL: http://adrianroselli.com/feed
  Result: 10 posts/year (Status: OK, Last: 2025-12-29)
Processing feed 485/1263: Google Online Security Blog
  Feed URL: http://googleonlinesecurity.blogspot.com/atom.xml
  Result: 25 posts/year (Status: OK, Last: 2025-12-10)
Processing feed 486/1263: CSS { In Real Life }
  Feed URL: https://css-irl.info/rss.xml
  Result: 7 posts/year (Status: OK, Last: 2025-09-28)
Processing feed 487/1263: David Bushell
  Feed URL: http://dbushell.com/rss/
  Result: 11 posts/year (Status: OK, Last: 2025-12-18)
Processing feed 488/1263: Boris Smus
  Feed URL: http://feeds.feedburner.com/smuscom
  Result: 18 posts/year (Status: OK, Last: 2025-12-18)
Processing feed 489/1263: Brad Frost
  Feed URL: http://feeds.feedburner.com/brad-frosts-blog
  Result: 30 posts/year (Status: OK, Last: 2025-12-26)
Processing feed 490/1263: hiddedevries.nl Blog
  Feed URL: https://hiddedevries.nl/rss/full/
  Result: 0 posts/year (Status: ERROR, Last: None)
Processing feed 491/1263: Eric Bailey
  Feed URL: https://ericwbailey.design/feed/feed.xml
  Result: 11 posts/year (Status: OK, Last: 2025-11-05)
Processing feed 492/1263: Chris Coyier
  Feed URL: http://feeds2.feedburner.com/ChrisCoyier
  Result: 12 posts/year (Status: OK, Last: 2026-01-02)
Processing feed 493/1263: Ahmad Shadeed
  Feed URL: http://ishadeed.com/feed.xml
  Result: 10 posts/year (Status: OK, Last: 2025-10-31)
Processing feed 494/1263: Danny van Kooten
  Feed URL: https://dannyvankooten.com/feed.xml
  Result: 4 posts/year (Status: OK, Last: 2025-10-07)
Processing feed 495/1263: Articles & Experiments by Roman Komarov on kizu.ru
  Feed URL: http://feeds.feedburner.com/kizuruen
  Result: 2 posts/year (Status: OK, Last: 2025-03-24)
Processing feed 496/1263: bkardell.com rss feed
  Feed URL: https://bkardell.com/blog/feed.rss
  Result: 9 posts/year (Status: OK, Last: 2025-12-04)
Processing feed 497/1263: AlastairC
  Feed URL: https://alastairc.uk/feed/
  Result: 3 posts/year (Status: OK, Last: 2025-11-27)
Processing feed 498/1263: Dr Scott Hollier – Digital Access Specialist
  Feed URL: http://hollier.info/feed/
  Result: 0 posts/year (Status: ERROR, Last: None)
Processing feed 499/1263: Ben Myers
  Feed URL: https://blog.benmyers.dev/feed.xml
  Result: 1 posts/year (Status: OK, Last: 2025-03-21)
Processing feed 500/1263: daverupert.com
  Feed URL: http://daverupert.com/atom.xml
  Result: 20 posts/year (Status: OK, Last: 2026-01-02)
Processing feed 501/1263: Chen Hui Jing
  Feed URL: http://www.chenhuijing.com/feed.xml
  Result: 0 posts/year (Status: ERROR, Last: None)
Processing feed 502/1263: Dhananjay Kumar
  Feed URL: http://debugmode.net/feed/
  Result: 10 posts/year (Status: OK, Last: 2025-11-08)
Processing feed 503/1263: LessWrong
  Feed URL: http://lesswrong.com/.rss
  Result: 10 posts/year (Status: OK, Last: 2026-01-03)
Processing feed 504/1263: Hacker News: Best Comments
  Feed URL: https://hnrss.org/bestcomments
  Result: 30 posts/year (Status: OK, Last: 2026-01-03)
Processing feed 505/1263: Environment news, comment and analysis | guardian.co.uk
  Feed URL: http://feeds.guardian.co.uk/theguardian/environment/rss
  Result: 25 posts/year (Status: OK, Last: 2026-01-03)
Processing feed 506/1263: Culture | The Guardian
  Feed URL: http://feeds.guardian.co.uk/theguardian/culture/rss
  Result: 70 posts/year (Status: OK, Last: 2026-01-03)
Processing feed 507/1263: Engadget
  Feed URL: http://www.engadget.com/rss.xml
  Result: 50 posts/year (Status: OK, Last: 2026-01-03)
Processing feed 508/1263: freshnews.org - most clicked links
  Feed URL: http://feeds.feedburner.com/FreshnewsMostClicked
  Result: 5 posts/year (Status: OK, Last: 2026-01-03)
Processing feed 509/1263: Top Links | Hacker News
  Feed URL: http://feedpress.me/hacker-news-best
  Result: 0 posts/year (Status: ERROR, Last: None)
Processing feed 510/1263: GeekNews - 개발/기술/스타트업 뉴스 서비스
  Feed URL: https://news.hada.io/rss/news
  Result: 10 posts/year (Status: OK, Last: 2026-01-03)
Processing feed 511/1263: Ars Technica - All content
  Feed URL: http://feeds.arstechnica.com/arstechnica/index/
  Result: 20 posts/year (Status: OK, Last: 2026-01-02)
Processing feed 512/1263: SPACE.com
  Feed URL: http://www.space.com/syn/space.xml
  Result: 50 posts/year (Status: OK, Last: 2026-01-03)
Processing feed 513/1263: 게임 BEST
  Feed URL: https://rss.diffbot.com/rss?url=https://m.ruliweb.com/best/game
  Result: 0 posts/year (Status: ERROR, Last: None)
Processing feed 514/1263: 오늘의유머
  Feed URL: https://rss.diffbot.com/rss?url=http://m.todayhumor.co.kr/list.php?table%3Dbestofbest
  Result: 30 posts/year (Status: OK, Last: 2026-01-03)
Processing feed 515/1263: BBC News
  Feed URL: http://news.bbc.co.uk/rss/newsonline_world_edition/entertainment/rss.xml
  Result: 35 posts/year (Status: OK, Last: 2026-01-03)
Processing feed 516/1263: 미디어오늘 - 전체기사
  Feed URL: http://www.mediatoday.co.kr/rss/allArticle.xml
  Result: 50 posts/year (Status: OK, Last: 2026-01-03)
Processing feed 517/1263: Omg! Ubuntu!
  Feed URL: http://feeds.feedburner.com/d0od
  Result: 18 posts/year (Status: OK, Last: 2026-01-02)
Processing feed 518/1263: The Endeavour
  Feed URL: http://feeds.feedburner.com/theendeavour
  Result: 30 posts/year (Status: OK, Last: 2026-01-01)
Processing feed 519/1263: 혁명은 언제나 시기상조
  Feed URL: http://weirdhat.net/blog/?feed=rss2
  Result: 5 posts/year (Status: OK, Last: 2026-01-03)
Processing feed 520/1263: 자연과 꽃과 여행 ... ♥
  Feed URL: http://blog.rss.naver.com/cychang2
  Result: 50 posts/year (Status: OK, Last: 2026-01-03)
Processing feed 521/1263: 이충재의 인사이트
  Feed URL: https://kill-the-newsletter.com/feeds/zyvbiqfd0g0bbgb2.xml
  Result: 12 posts/year (Status: OK, Last: 2026-01-01)
Processing feed 522/1263: 권남
  Feed URL: http://kwonnam.pe.kr/wiki/feed.php
[...]
Processing feed 789/1263: US cybersecurity experts plead guilty to attacking US companies with ransomware – Computerworld
  Feed URL: http://feeds.computerworld.com/Computerworld/Quickstudy
  Result: 0 posts/year (Status: ERROR, Last: None)
Processing feed 790/1263: MIT Technology Review via ifttt
  Feed URL: https://kill-the-newsletter.com/feeds/umtle7x9bi18ltj1.xml
  Result: 38 posts/year (Status: OK, Last: 2026-01-02)
Processing feed 791/1263: Ubergizmo
  Feed URL: http://www.ubergizmo.com/index.xml
  Result: 30 posts/year (Status: OK, Last: 2026-01-02)
Processing feed 792/1263: Thingiverse - Popular Things
  Feed URL: http://www.thingiverse.com/rss/popular
  Result: 30 posts/year (Status: OK, Last: 2026-01-03)
Processing feed 793/1263: Andy Balaam's Blog
  Feed URL: http://www.artificialworlds.net/blog/feed/
  Result: 53 posts/year (Status: OK, Last: 2025-12-12)
Processing feed 794/1263: reddit: the front page of the internet
  Feed URL: http://programming.reddit.com/.rss
  Result: 25 posts/year (Status: OK, Last: 2026-01-03)
Processing feed 795/1263: Mashable!
  Feed URL: http://feeds2.feedburner.com/Mashable
  Result: 100 posts/year (Status: OK, Last: 2026-01-03)
Processing feed 796/1263: Lifehacker
  Feed URL: http://lifehacker.com/vip.xml
  Result: 100 posts/year (Status: OK, Last: 2026-01-02)
Processing feed 797/1263: The Verge
  Feed URL: http://www.theverge.com/rss/full.xml
  Result: 10 posts/year (Status: OK, Last: 2026-01-03)
Processing feed 798/1263: TechCrunch
  Feed URL: http://feeds.feedburner.com/Techcrunch
  Result: 1 posts/year (Status: OK, Last: 2025-12-04)
Processing feed 799/1263: Slashdot
  Feed URL: http://rss.slashdot.org/Slashdot/slashdot
  Result: 15 posts/year (Status: OK, Last: 2026-01-03)
Processing feed 800/1263: Hacker News
  Feed URL: http://news.ycombinator.com/rss
  Result: 30 posts/year (Status: OK, Last: 2026-01-03)
Processing feed 801/1263: Google Research Blog
  Feed URL: http://googleresearch.blogspot.com/atom.xml
  Result: 0 posts/year (Status: OLD, Last: 2024-03-29)
Processing feed 802/1263: Techdirt
  Feed URL: http://www.techdirt.com/techdirt_rss.xml
  Result: 10 posts/year (Status: OK, Last: 2026-01-02)
Processing feed 803/1263: News – Communications of the ACM
  Feed URL: http://cacm.acm.org/news.rss
  Result: 0 posts/year (Status: ERROR, Last: None)
Processing feed 804/1263: 얼리어답터
  Feed URL: http://www.earlyadopter.co.kr/feed
  Result: 0 posts/year (Status: ERROR, Last: None)
Processing feed 805/1263: TweakTown News RSS Feed
  Feed URL: http://feeds.feedburner.com/TweaktownNewsRss
  Result: 15 posts/year (Status: OK, Last: 2026-01-02)
Processing feed 806/1263: Wired Top Stories
  Feed URL: http://www.wired.com/news/feeds/rss2/0,2610,,00.xml
  Result: 0 posts/year (Status: ERROR, Last: None)
Processing feed 807/1263: Phoronix
  Feed URL: http://www.phoronix.com/rss.php
  Result: 32 posts/year (Status: OK, Last: 2026-01-03)
Processing feed 808/1263: The Verge
  Feed URL: http://www.theverge.com/rss/full.xml
  Result: 10 posts/year (Status: OK, Last: 2026-01-03)
Processing feed 809/1263: The Register
  Feed URL: http://www.theregister.co.uk/excerpts.rss
  Result: 50 posts/year (Status: OK, Last: 2026-01-03)
Processing feed 810/1263: wingolog
  Feed URL: http://wingolog.org/feed/atom
  Result: 10 posts/year (Status: OK, Last: 2025-12-17)
Processing feed 811/1263: Register Spill
  Feed URL: https://registerspill.thorstenball.com/feed
  Result: 20 posts/year (Status: OK, Last: 2025-12-21)
Processing feed 812/1263: The Endeavour
  Feed URL: http://feeds.feedburner.com/theendeavour
  Result: 30 posts/year (Status: OK, Last: 2026-01-01)
Processing feed 813/1263: BBC News
  Feed URL: http://feeds.bbci.co.uk/news/world/rss.xml
  Result: 28 posts/year (Status: OK, Last: 2026-01-03)
Processing feed 814/1263: 오늘의뉴스
  Feed URL: http://rss.etnews.co.kr/Section901.xml
  Result: 14 posts/year (Status: OK, Last: 2026-01-03)
Processing feed 815/1263: Mashable!
  Feed URL: http://feeds2.feedburner.com/Mashable
  Result: 100 posts/year (Status: OK, Last: 2026-01-03)
Processing feed 816/1263: Quartz
  Feed URL: http://qz.com/feed/
  Result: 50 posts/year (Status: OK, Last: 2026-01-03)
Processing feed 817/1263: Axios
  Feed URL: https://www.axios.com/feeds/feed.rss
  Result: 100 posts/year (Status: OK, Last: 2026-01-03)
Processing feed 818/1263: The Independent UK
  Feed URL: http://www.independent.co.uk/news/uk/rss
  Result: 17 posts/year (Status: OK, Last: 2026-01-03)
Processing feed 819/1263: 오마이뉴스 - 사회
  Feed URL: http://rss.ohmynews.com/rss/society.xml
  Result: 20 posts/year (Status: OK, Last: 2026-01-03)
Processing feed 820/1263: UK news | The Guardian
  Feed URL: http://feeds.theguardian.com/theguardian/uk-news/rss
  Result: 45 posts/year (Status: OK, Last: 2026-01-03)
Processing feed 821/1263: Techmeme
  Feed URL: http://www.techmeme.com/index.xml
  Result: 15 posts/year (Status: OK, Last: 2026-01-03)
Processing feed 822/1263: 오른쪽 BEST BEST
  Feed URL: https://rss.diffbot.com/rss?url=https://m.ruliweb.com/best/hit_history
  Result: 20 posts/year (Status: OK, Last: 2025-12-29)
Processing feed 823/1263: 굴러간당
  Feed URL: https://rss.diffbot.com/rss?url=https://damoang.net/car
  Result: 32 posts/year (Status: OK, Last: 2026-01-03)
Processing feed 824/1263: 경향신문:사회
  Feed URL: http://www.khan.co.kr/rss/rssdata/society_news.xml
  Result: 50 posts/year (Status: OK, Last: 2026-01-03)
Processing feed 825/1263: Deutsche Welle
  Feed URL: http://rss.dw-world.de/rdf/rss-en-all
  Result: 145 posts/year (Status: OK, Last: 2026-01-03)
Processing feed 826/1263: Gizmodo
  Feed URL: http://feeds.gawker.com/gizmodo/full
  Result: 0 posts/year (Status: ERROR, Last: None)
Processing feed 827/1263: ScienceDaily: Latest Science News
  Feed URL: http://www.sciencedaily.com/newsfeed.xml
  Result: 60 posts/year (Status: OK, Last: 2026-01-03)
Processing feed 828/1263: Christian Heilmann
  Feed URL: http://www.wait-till-i.com/wp-atom.php
  Result: 0 posts/year (Status: ERROR, Last: None)
Processing feed 829/1263: Facebook Engineering
  Feed URL: https://code.facebook.com/posts/rss
  Result: 9 posts/year (Status: OK, Last: 2025-12-22)
Processing feed 830/1263: Ben Morris. Software architect.
  Feed URL: http://www.ben-morris.com/feed
  Result: 5 posts/year (Status: OK, Last: 2025-10-11)
Processing feed 831/1263: Software As She's Developed
  Feed URL: http://softwareas.com/feed
  Result: 0 posts/year (Status: OLD, Last: 2024-12-21)
Processing feed 832/1263: Dropbox Tech Blog
  Feed URL: https://tech.dropbox.com/feed/
  Result: 0 posts/year (Status: ERROR, Last: None)
Processing feed 833/1263: Several People Are Coding
  Feed URL: https://slack.engineering/feed
  Result: 8 posts/year (Status: OK, Last: 2025-12-01)
Processing feed 834/1263: Lambda the Ultimate - Programming Languages Weblog
  Feed URL: http://lambda-the-ultimate.org/rss.xml
  Result: 0 posts/year (Status: OLD, Last: 2023-03-04)
Processing feed 835/1263: The Code Project Latest Articles
  Feed URL: http://www.codeproject.com/webservices/articlerss.aspx?cat=1
  Result: 0 posts/year (Status: ERROR, Last: None)
Processing feed 836/1263: freeCodeCamp Programming Tutorials: Python, JavaScript, Git & More
  Feed URL: https://www.freecodecamp.org/news/rss/
  Result: 10 posts/year (Status: OK, Last: 2025-12-24)
Processing feed 837/1263: Universe Today
  Feed URL: http://www.universetoday.com/universetoday.xml
  Result: 20 posts/year (Status: OK, Last: 2026-01-02)
Processing feed 838/1263: ScienceDaily: Latest Science News
  Feed URL: http://www.sciencedaily.com/newsfeed.xml
  Result: 60 posts/year (Status: OK, Last: 2026-01-03)
Processing feed 839/1263: Discover Blogs
  Feed URL: http://feeds.feedburner.com/DiscoverBlogs
  Result: 20 posts/year (Status: OK, Last: 2026-01-02)
Processing feed 840/1263: Computer Science – Quanta Magazine
  Feed URL: https://www.quantamagazine.org/category/computer-science-2/feed/
  Result: 0 posts/year (Status: EMPTY, Last: None)
Processing feed 841/1263: Informed Comment
  Feed URL: http://www.juancole.com/feed/atom
  Result: 9 posts/year (Status: OK, Last: 2026-01-03)
Processing feed 842/1263: Pluralistic: Daily links from Cory Doctorow
  Feed URL: https://pluralistic.net/feed/
  Result: 10 posts/year (Status: OK, Last: 2026-01-01)
Processing feed 843/1263: Tom Scott's Weekly Newsletter
  Feed URL: http://www.tomscott.com/updates.xml
  Result: 10 posts/year (Status: OK, Last: 2025-12-29)
Processing feed 844/1263: ResearchBuzz
  Feed URL: https://researchbuzz.me/feed/
  Result: 10 posts/year (Status: OK, Last: 2026-01-02)
Processing feed 845/1263: 머니레터
  Feed URL: https://kill-the-newsletter.com/feeds/bcbdcrii8gx5ef8u.xml
  Result: 5 posts/year (Status: OK, Last: 2026-01-02)
Processing feed 846/1263: nextdoor
  Feed URL: https://kill-the-newsletter.com/feeds/xefr0c4c7gji5woo.xml
  Result: 11 posts/year (Status: OK, Last: 2026-01-03)
Processing feed 847/1263: inyourarea
  Feed URL: https://kill-the-newsletter.com/feeds/ydfcvyh4m3nfvmsy.xml
  Result: 13 posts/year (Status: OK, Last: 2026-01-03)
Processing feed 848/1263: 대영제국에서 온 편지
  Feed URL: https://kill-the-newsletter.com/feeds/jhj2a69t5g5lu93s.xml
  Result: 0 posts/year (Status: OLD, Last: 2022-04-04)
Processing feed 849/1263: 미스터동
  Feed URL: https://kill-the-newsletter.com/feeds/6zjwibpuvjsufbzs.xml
  Result: 0 posts/year (Status: OLD, Last: 2024-12-27)
Processing feed 850/1263: 더슬랭
  Feed URL: https://kill-the-newsletter.com/feeds/kwjtcd4zczxvd3ux.xml
  Result: 8 posts/year (Status: OK, Last: 2025-05-20)
Processing feed 851/1263: Stratechery by Ben Thompson
  Feed URL: https://stratechery.com/feed/
  Result: 10 posts/year (Status: OK, Last: 2025-12-22)
Processing feed 852/1263: what happened last week
  Feed URL: https://kill-the-newsletter.com/feeds/h5dopw5l3aqlf6s5.xml
  Result: 10 posts/year (Status: OK, Last: 2025-12-30)
Processing feed 853/1263: 송의달의 모닝라이브
  Feed URL: https://kill-the-newsletter.com/feeds/jc7z12y0c20dnukt.xml
  Result: 0 posts/year (Status: OLD, Last: 2024-04-23)
Processing feed 854/1263: 최원석의 디코드
  Feed URL: https://kill-the-newsletter.com/feeds/xu67f31wb92644kb.xml
  Result: 0 posts/year (Status: OLD, Last: 2023-11-22)
Processing feed 855/1263: 딥다이브
  Feed URL: https://kill-the-newsletter.com/feeds/n6qd9vhay5vjko7z.xml
  Result: 0 posts/year (Status: OLD, Last: 2023-03-19)
Processing feed 856/1263: 점선면
  Feed URL: https://kill-the-newsletter.com/feeds/7hutrnbzwt4u6px0.xml
  Result: 9 posts/year (Status: OK, Last: 2026-01-01)
Processing feed 857/1263: Axios Login
  Feed URL: https://kill-the-newsletter.com/feeds/gvzz5p2z99n3radr.xml
  Result: 13 posts/year (Status: OK, Last: 2026-01-02)
Processing feed 858/1263: London Minute
  Feed URL: https://londonminute.substack.com/feed
  Result: 20 posts/year (Status: OK, Last: 2026-01-02)
Processing feed 859/1263: 미라클레터 MIRAKLE
  Feed URL: https://kill-the-newsletter.com/feeds/il59ouj8gko6nczv.xml
  Result: 9 posts/year (Status: OK, Last: 2025-12-30)
Processing feed 860/1263: The Download
  Feed URL: https://kill-the-newsletter.com/feeds/p51vej0aiihprsuu.xml
  Result: 7 posts/year (Status: OK, Last: 2026-01-01)
Processing feed 861/1263: Bruce Lawson's personal site
  Feed URL: http://www.brucelawson.co.uk/feed/
  Result: 6 posts/year (Status: OK, Last: 2025-12-12)
Processing feed 862/1263: 휘클리
  Feed URL: https://kill-the-newsletter.com/feeds/2tvu6j4qovgyhixh241p.xml
  Result: 4 posts/year (Status: OK, Last: 2025-12-11)
Processing feed 863/1263: Semafor
  Feed URL: https://kill-the-newsletter.com/feeds/tbu27bmxwa20hou7.xml
  Result: 10 posts/year (Status: OK, Last: 2025-12-31)
Processing feed 864/1263: Labnotes
  Feed URL: http://labnotes.org/feed/atom/
  Result: 0 posts/year (Status: ERROR, Last: None)
Processing feed 865/1263: Noahpinion
  Feed URL: https://noahpinion.substack.com/feed/
  Result: 20 posts/year (Status: OK, Last: 2026-01-02)
Processing feed 866/1263: 썸원의 SUMMARY&EDIT
  Feed URL: https://kill-the-newsletter.com/feeds/9kaluz14ci2ppe19.xml
  Result: 0 posts/year (Status: OLD, Last: 2022-02-23)
Processing feed 867/1263: London Spy
  Feed URL: https://www.thelondonspy.co.uk/feed
  Result: 20 posts/year (Status: OK, Last: 2025-10-01)
Processing feed 868/1263: Oxford English Dictionary
  Feed URL: http://www.oed.com/rss.xml
  Result: 0 posts/year (Status: ERROR, Last: None)
Processing feed 869/1263: Talk About English (Learn English)
  Feed URL: http://downloads.bbc.co.uk/podcasts/worldservice/tae/rss.xml
  Result: 57 posts/year (Status: OK, Last: 2025-12-30)
Processing feed 870/1263: TechCrunch
  Feed URL: http://feeds.feedburner.com/Techcrunch
  Result: 1 posts/year (Status: OK, Last: 2025-12-04)
Processing feed 871/1263: 클리앙 : 아이포니앙
  Feed URL: https://rss.diffbot.com/rss?url=https://www.clien.net/service/board/cm_iphonien
  Result: 30 posts/year (Status: OK, Last: 2026-01-03)
Processing feed 872/1263: National Review
  Feed URL: http://www.nationalreview.com/rss.xml
  Result: 20 posts/year (Status: OK, Last: 2026-01-03)
Processing feed 873/1263: Lifehacker
  Feed URL: http://lifehacker.com/vip.xml
  Result: 100 posts/year (Status: OK, Last: 2026-01-02)
Processing feed 874/1263: KentOnline News
  Feed URL: http://www.kentonline.co.uk/feeds/kent_online_news_feed.xml
  Result: 20 posts/year (Status: OK, Last: 2026-01-03)
Processing feed 875/1263: 자전거당
  Feed URL: https://rss.diffbot.com/rss?url=https://damoang.net/bicycle
  Result: 0 posts/year (Status: ERROR, Last: None)
Processing feed 876/1263: Slashdot
  Feed URL: http://rss.slashdot.org/Slashdot/slashdot
  Result: 15 posts/year (Status: OK, Last: 2026-01-03)
Processing feed 877/1263: BBC News
  Feed URL: http://newsrss.bbc.co.uk/rss/newsonline_uk_edition/england/london/rss.xml
  Result: 35 posts/year (Status: OK, Last: 2026-01-03)
Processing feed 878/1263: Lifestyle | The Guardian
  Feed URL: http://feeds.guardian.co.uk/theguardian/lifeandstyle/rss
  Result: 47 posts/year (Status: OK, Last: 2026-01-03)
Processing feed 879/1263: TweakTown News RSS Feed
  Feed URL: http://feeds.feedburner.com/TweaktownNewsRss
  Result: 15 posts/year (Status: OK, Last: 2026-01-02)
Processing feed 880/1263: Society | The Guardian
  Feed URL: http://feeds.guardian.co.uk/theguardian/society/rss
  Result: 32 posts/year (Status: OK, Last: 2026-01-03)
Processing feed 881/1263: The Verge
  Feed URL: http://www.theverge.com/rss/full.xml
  Result: 10 posts/year (Status: OK, Last: 2026-01-03)
Processing feed 882/1263: The Register
  Feed URL: http://www.theregister.co.uk/excerpts.rss
  Result: 50 posts/year (Status: OK, Last: 2026-01-03)
Processing feed 883/1263: Dan Moore!
  Feed URL: http://www.mooreds.com/wordpress/feed
  Result: 10 posts/year (Status: OK, Last: 2025-12-22)
Processing feed 884/1263: Bruce Lawson's personal site
  Feed URL: http://www.brucelawson.co.uk/feed/
  Result: 6 posts/year (Status: OK, Last: 2025-12-12)
Processing feed 885/1263: Geeking with Greg
  Feed URL: http://feeds.feedburner.com/GeekingWithGreg
  Result: 0 posts/year (Status: OLD, Last: 2024-01-12)
Processing feed 886/1263: Startup Grind
  Feed URL: https://medium.com/feed/startup-grind
  Result: 0 posts/year (Status: OLD, Last: 2024-03-26)
Processing feed 887/1263: Labnotes
  Feed URL: http://labnotes.org/feed/atom/
  Result: 0 posts/year (Status: ERROR, Last: None)
Processing feed 888/1263: LukeW | Writings on Digital Product Strategy and Design
  Feed URL: http://feeds.feedburner.com/FunctioningForm
  Result: 15 posts/year (Status: OK, Last: 2025-12-15)
Processing feed 889/1263: FlowingData
  Feed URL: http://feeds.feedburner.com/FlowingData
  Result: 10 posts/year (Status: OK, Last: 2026-01-02)
Processing feed 890/1263: 이글루스 '얼리어답터' 테마 인기글
  Feed URL: http://valley.egloos.com/theme/rss/top/earlyadopter
  Result: 0 posts/year (Status: ERROR, Last: None)
Processing feed 891/1263: freshnews.org - most clicked links
  Feed URL: http://feeds.feedburner.com/FreshnewsMostClicked
  Result: 5 posts/year (Status: OK, Last: 2026-01-03)
Processing feed 892/1263: Top Links | Hacker News
  Feed URL: http://feedpress.me/hacker-news-best
  Result: 0 posts/year (Status: ERROR, Last: None)
Processing feed 893/1263: 이글루스 '도서' 테마 인기글
  Feed URL: http://valley.egloos.com/theme/rss/top/book
  Result: 0 posts/year (Status: ERROR, Last: None)
Processing feed 894/1263: 이글루스 '게임' 테마 인기글
  Feed URL: http://valley.egloos.com/theme/rss/top/game
  Result: 0 posts/year (Status: ERROR, Last: None)
Processing feed 895/1263: 이글루스 '여행' 테마 인기글
  Feed URL: http://valley.egloos.com/theme/rss/top/travel
  Result: 0 posts/year (Status: ERROR, Last: None)
Processing feed 896/1263: 이글루스 'IT' 테마 인기글
  Feed URL: http://valley.egloos.com/theme/rss/top/technology
  Result: 0 posts/year (Status: ERROR, Last: None)
Processing feed 897/1263: 이글루스 '애니메이션' 테마 인기글
  Feed URL: http://valley.egloos.com/theme/rss/top/animation
  Result: 0 posts/year (Status: ERROR, Last: None)
Processing feed 898/1263: 이글루스 '뉴스비평' 테마 인기글
  Feed URL: http://valley.egloos.com/theme/rss/top/news
  Result: 0 posts/year (Status: ERROR, Last: None)
Processing feed 899/1263: 이글루스 '만화' 테마 인기글
  Feed URL: http://valley.egloos.com/theme/rss/top/comic
  Result: 0 posts/year (Status: ERROR, Last: None)
Processing feed 900/1263: 이글루스 '영화' 테마 인기글
  Feed URL: http://valley.egloos.com/theme/rss/top/movie
  Result: 0 posts/year (Status: ERROR, Last: None)
Processing feed 901/1263: 초록섬
  Feed URL: http://blog.rss.naver.com/77attic.xml
  Result: 50 posts/year (Status: OK, Last: 2026-01-02)
Processing feed 902/1263: 다초리의 숲속여행
  Feed URL: http://blog.rss.naver.com/dachori
  Result: 50 posts/year (Status: OK, Last: 2025-12-31)
Processing feed 903/1263: Deutscher Parnass
  Feed URL: http://blog.rss.naver.com/pamina7776
  Result: 50 posts/year (Status: OK, Last: 2026-01-02)
Processing feed 904/1263: 들꽃편지
  Feed URL: http://blog.rss.naver.com/dhfodhfo00
  Result: 50 posts/year (Status: OK, Last: 2025-12-31)
Processing feed 905/1263: 미술관 속 비밀도서관
  Feed URL: http://blog.rss.naver.com/goldsunriver.xml
  Result: 24 posts/year (Status: OK, Last: 2025-07-18)
Processing feed 906/1263: 박규영_자연의 비경
  Feed URL: http://blog.rss.naver.com/photoky.xml
  Result: 0 posts/year (Status: OLD, Last: 2023-07-14)
Processing feed 907/1263: Jay and Mark
  Feed URL: https://www.youtube.com/feeds/videos.xml?channel_id=UCbbQalJ4OaC0oQ0AqRaOJ9g
  Result: 8 posts/year (Status: OK, Last: 2025-12-08)
Processing feed 908/1263: 오픈소스를 좋아하려 하는 개발자가 꿈인 태환
  Feed URL: http://thdev.net/rss
  Result: 2 posts/year (Status: OK, Last: 2025-09-17)
Processing feed 909/1263: Nico Brailovsky's thought repository
  Feed URL: https://nicolasbrailo.github.io/blog/rss.xml
  Result: 8 posts/year (Status: OK, Last: 2025-12-07)
Processing feed 910/1263: 기사
  Feed URL: http://www.ddanzi.com/ddanziNews/rss
  Result: 15 posts/year (Status: OK, Last: 2026-01-02)
Processing feed 911/1263: Cameron Sun
  Feed URL: https://www.csun.io/feed.xml
  Result: 2 posts/year (Status: OK, Last: 2025-05-16)
Processing feed 912/1263: 먼나라 이웃나라 역사 프리즘
  Feed URL: https://rss.diffbot.com/rss?url=https://www.joongang.co.kr/series/11656
  Result: 24 posts/year (Status: OK, Last: 2025-12-26)
Processing feed 913/1263: Posts on The C++ way
  Feed URL: https://thecppway.com/posts/index.xml
  Result: 2 posts/year (Status: OK, Last: 2025-12-03)
Processing feed 914/1263: Toby's Epril
  Feed URL: https://tobyepril.tistory.com/rss
  Result: 0 posts/year (Status: OLD, Last: 2024-09-10)
Processing feed 915/1263: PATENT DROP
  Feed URL: https://patentdrop.substack.com/feed/
  Result: 0 posts/year (Status: EMPTY, Last: None)
Processing feed 916/1263: Woodlands Farm Trust
  Feed URL: https://www.thewoodlandsfarmtrust.org/blog-feed.xml
  Result: 3 posts/year (Status: OK, Last: 2025-12-15)
Processing feed 917/1263: rohanrd.xyz
  Feed URL: https://rohanrd.xyz/index.xml
  Result: 0 posts/year (Status: ERROR, Last: None)
Processing feed 918/1263: Londonist
  Feed URL: http://www.londonist.com/index.rdf
  Result: 40 posts/year (Status: OK, Last: 2026-01-03)
