Feedly Feed Analysis Log - 2026-01-03 13:15:29
User request: Parse OPML file and analyze feed frequencies
Input file: ./feedly.opml
Output file: ./feedly_feeds.jsonl
============================================================

Processing feed 1/1263: NewsPeppermint » Feed
  Feed URL: http://newspeppermint.com/feed/
  Result: 10 posts/year (Status: OK, Last: 2025-05-15)
Processing feed 2/1263: HowToCreate - Opera
  Feed URL: http://www.howtocreate.co.uk/operaStuff/operaStuff.xml
  Result: 0 posts/year (Status: OLD, Last: 2009-05-22)
Processing feed 3/1263: 오늘의뉴스
  Feed URL: http://rss.etnews.co.kr/Section901.xml
  Result: 14 posts/year (Status: OK, Last: 2026-01-03)
Processing feed 4/1263: 많이본기사 : 뉴스 : 한겨레 뉴스 - 인터넷한겨레
  Feed URL: http://www.hani.co.kr/rss/newsrank/
  Result: 70 posts/year (Status: OK, Last: 2026-01-03)
Processing feed 5/1263: 뉴스톱 - 전체기사
  Feed URL: http://www.newstof.com/rss/allArticle.xml
  Result: 50 posts/year (Status: OK, Last: 2026-01-02)
Processing feed 6/1263: 주요기사 : 뉴스 : 한겨레 뉴스 - 인터넷한겨레
  Feed URL: http://www.hani.co.kr/rss/lead/
  Result: 0 posts/year (Status: ERROR, Last: None)
Processing feed 7/1263: 오마이뉴스 - 사회
  Feed URL: http://rss.ohmynews.com/rss/society.xml
  Result: 20 posts/year (Status: OK, Last: 2026-01-03)
Processing feed 8/1263: 미디어오늘 - 전체기사
  Feed URL: http://www.mediatoday.co.kr/rss/allArticle.xml
  Result: 50 posts/year (Status: OK, Last: 2026-01-03)
Processing feed 9/1263: 채널예스 : 영화
  Feed URL: http://ch.yes24.com/feed/column/2172
  Result: 0 posts/year (Status: ERROR, Last: None)
Processing feed 10/1263: 채널예스 : 책
  Feed URL: http://ch.yes24.com/feed/column/2162
  Result: 0 posts/year (Status: ERROR, Last: None)
Processing feed 11/1263: 채널예스 : 만나고 싶었어요!
  Feed URL: http://ch.yes24.com/feed/columns/1958
  Result: 0 posts/year (Status: ERROR, Last: None)
Processing feed 12/1263: 채널예스 : 작가와의 만남
  Feed URL: http://ch.yes24.com/feed/columns/1959
  Result: 0 posts/year (Status: ERROR, Last: None)
Processing feed 13/1263: 채널예스 : 특집 기획
  Feed URL: http://ch.yes24.com/feed/column/2184
  Result: 0 posts/year (Status: ERROR, Last: None)
Processing feed 14/1263: 채널예스 : 여행/취미
  Feed URL: http://ch.yes24.com/feed/column/2168
  Result: 0 posts/year (Status: ERROR, Last: None)
Processing feed 15/1263: London Review of Books
  Feed URL: http://www.lrb.co.uk/homerss.xml
  Result: 0 posts/year (Status: ERROR, Last: None)
Processing feed 16/1263: 채널예스 : 음악
  Feed URL: http://ch.yes24.com/feed/column/2163
  Result: 0 posts/year (Status: ERROR, Last: None)
Processing feed 17/1263: 채널예스 : 주목, 이주의 신간
  Feed URL: http://ch.yes24.com/feed/column/2177
  Result: 0 posts/year (Status: ERROR, Last: None)
Processing feed 18/1263: 채널예스 : 대중문화
  Feed URL: http://ch.yes24.com/feed/column/2165
  Result: 0 posts/year (Status: ERROR, Last: None)
Processing feed 19/1263: 디에디트
  Feed URL: http://the-edit.co.kr/feed
  Result: 10 posts/year (Status: OK, Last: 2026-01-02)
Processing feed 20/1263: Philosophy Now
  Feed URL: http://www.philosophynow.org/rss
  Result: 33 posts/year (Status: OK, Last: 2025-12-06)
Processing feed 21/1263: 클리앙 : 덕질한당
  Feed URL: https://rss.diffbot.com/rss?url=https://www.clien.net/service/board/cm_ku
  Result: 0 posts/year (Status: ERROR, Last: None)
Processing feed 22/1263: 클리앙 : 날아간당
  Feed URL: https://rss.diffbot.com/rss?url=https://www.clien.net/service/board/cm_airplane
  Result: 0 posts/year (Status: ERROR, Last: None)
Processing feed 23/1263: Potentials, IEEE - new TOC
  Feed URL: http://ieeexplore.ieee.org/rss/TOC45.XML
  Result: 13 posts/year (Status: OK, Last: 2025-11-07)
Processing feed 24/1263: 클리앙 : 달린당
  Feed URL: https://rss.diffbot.com/rss?url=https://www.clien.net/service/board/cm_running
  Result: 0 posts/year (Status: ERROR, Last: None)
Processing feed 25/1263: What's On
  Feed URL: https://rss.diffbot.com/rss?url=https://www.gresham.ac.uk/whats-on
  Result: 0 posts/year (Status: OLD, Last: None)
Processing feed 26/1263: News Shopper | Bexley
  Feed URL: http://www.newsshopper.co.uk/news/bexley/rss/
  Result: 50 posts/year (Status: OK, Last: 2026-01-01)
Processing feed 27/1263: MakeUseOf - iPhone
  Feed URL: http://www.makeuseof.com/service/ios/feed/
  Result: 10 posts/year (Status: OK, Last: 2026-01-01)
Processing feed 28/1263: Aeon | a world of ideas
  Feed URL: https://aeon.co/feed.rss
  Result: 20 posts/year (Status: OK, Last: 2025-12-22)
Processing feed 29/1263: Merriam-Webster's Word of the Day
  Feed URL: http://www.merriam-webster.com/word/index.xml
  Result: 10 posts/year (Status: OK, Last: 2026-01-03)
Processing feed 30/1263: FlowingData
  Feed URL: http://feeds.feedburner.com/FlowingData
  Result: 10 posts/year (Status: OK, Last: 2026-01-02)
Processing feed 31/1263: 거리의 풍경
  Feed URL: http://blog.rss.naver.com/unviajero.xml
  Result: 50 posts/year (Status: OK, Last: 2026-01-02)
Processing feed 32/1263: IEEE Annals of the History of Computing - new TOC
  Feed URL: http://ieeexplore.ieee.org/rss/TOC85.XML
  Result: 25 posts/year (Status: OK, Last: 2025-12-23)
Processing feed 33/1263: Toxel.com
  Feed URL: http://feeds.feedburner.com/toxel
  Result: 10 posts/year (Status: OK, Last: 2026-01-02)
Processing feed 34/1263: Terence Eden’s Blog
  Feed URL: https://shkspr.mobi/blog/feed/atom/
  Result: 20 posts/year (Status: OK, Last: 2026-01-03)
Processing feed 35/1263: Computing | The Guardian
  Feed URL: http://www.guardian.co.uk/technology/computing/rss
  Result: 20 posts/year (Status: OK, Last: 2026-01-03)
Processing feed 36/1263: Best of The Atlantic
  Feed URL: http://feeds.feedburner.com/Best-Of-The-Atlantic
  Result: 23 posts/year (Status: OK, Last: 2026-01-03)
Processing feed 37/1263: Semafor
  Feed URL: https://www.semafor.com/rss.xml
  Result: 109 posts/year (Status: OK, Last: 2026-01-03)
Processing feed 38/1263: (구)아이포니앙
  Feed URL: https://rss.diffbot.com/rss?url=https://damoang.net/iphone
  Result: 0 posts/year (Status: ERROR, Last: None)
Processing feed 39/1263: 그림만화 BEST
  Feed URL: https://rss.diffbot.com/rss?url=https://m.ruliweb.com/best/cartoon
  Result: 28 posts/year (Status: OK, Last: 2026-01-03)
Processing feed 40/1263: Hack a Day
  Feed URL: http://hackaday.com/feed/
  Result: 7 posts/year (Status: OK, Last: 2026-01-03)
Processing feed 41/1263: Atlas Obscura
  Feed URL: http://atlasobscura.com/rss.xml
  Result: 24 posts/year (Status: OK, Last: 2026-01-02)
Processing feed 42/1263: BBC News
  Feed URL: http://newsrss.bbc.co.uk/rss/newsonline_world_edition/business/rss.xml
  Result: 50 posts/year (Status: OK, Last: 2026-01-03)
Processing feed 43/1263: Wired Top Stories
  Feed URL: http://www.wired.com/news/feeds/rss2/0,2610,,00.xml
  Result: 0 posts/year (Status: ERROR, Last: None)
Processing feed 44/1263: Phoronix
  Feed URL: http://www.phoronix.com/rss.php
  Result: 32 posts/year (Status: OK, Last: 2026-01-03)
Processing feed 45/1263: Everything
  Feed URL: http://www.newyorker.com/services/mrss/feeds/everything.xml
  Result: 50 posts/year (Status: OK, Last: 2026-01-03)
Processing feed 46/1263: 달린당
  Feed URL: https://rss.diffbot.com/rss?url=https://damoang.net/running
  Result: 0 posts/year (Status: ERROR, Last: None)
Processing feed 47/1263: 바다건너당
  Feed URL: https://rss.diffbot.com/rss?url=https://damoang.net/overseas
  Result: 0 posts/year (Status: ERROR, Last: None)
Processing feed 48/1263: Philosophy Now
  Feed URL: http://www.philosophynow.org/rss
  Result: 33 posts/year (Status: OK, Last: 2025-12-06)
Processing feed 49/1263: Potentials, IEEE - new TOC
  Feed URL: http://ieeexplore.ieee.org/rss/TOC45.XML
  Result: 13 posts/year (Status: OK, Last: 2025-11-07)
Processing feed 50/1263: Spectrum, IEEE - new TOC
  Feed URL: http://ieeexplore.ieee.org/rss/TOC6.XML
  Result: 23 posts/year (Status: OK, Last: 2025-12-10)
Processing feed 51/1263: IEEE Annals of the History of Computing - new TOC
  Feed URL: http://ieeexplore.ieee.org/rss/TOC85.XML
  Result: 25 posts/year (Status: OK, Last: 2025-12-23)
Processing feed 52/1263: Transactions on Computers - new TOC
  Feed URL: http://ieeexplore.ieee.org/rss/TOC12.XML
  Result: 29 posts/year (Status: OK, Last: 2025-11-14)
Processing feed 53/1263: Computer - new TOC
  Feed URL: http://ieeexplore.ieee.org/rss/TOC2.XML
  Result: 50 posts/year (Status: OK, Last: 2025-12-31)
Processing feed 54/1263: Engadget
  Feed URL: http://www.engadget.com/rss.xml
  Result: 50 posts/year (Status: OK, Last: 2026-01-03)
Processing feed 55/1263: 지도와 Web2.0 그리고 한국의 미래
  Feed URL: http://feeds2.feedburner.com/blogspot/InternetMap
  Result: 10 posts/year (Status: OK, Last: 2025-12-29)
Processing feed 56/1263: Christian Heilmann
  Feed URL: http://www.wait-till-i.com/wp-atom.php
  Result: 0 posts/year (Status: ERROR, Last: None)
Processing feed 57/1263: Jonathan Snook
  Feed URL: http://feeds.feedburner.com/snookca
  Result: 8 posts/year (Status: OK, Last: 2025-12-31)
Processing feed 58/1263: Nettuts+
  Feed URL: http://net.tutsplus.com/feed/
  Result: 9 posts/year (Status: OK, Last: 2025-07-21)
Processing feed 59/1263: Remy Sharp
  Feed URL: http://feeds.feedburner.com/remysharp
  Result: 42 posts/year (Status: OK, Last: 2026-01-01)
Processing feed 60/1263: Thoughts From Eric
  Feed URL: http://meyerweb.com/eric/thoughts/rss2/summary
  Result: 10 posts/year (Status: OK, Last: 2025-12-19)
Processing feed 61/1263: Bruce Lawson's personal site
  Feed URL: http://www.brucelawson.co.uk/feed/
  Result: 6 posts/year (Status: OK, Last: 2025-12-12)
Processing feed 62/1263: HTML + CSS + JavaScript
  Feed URL: http://feeds2.feedburner.com/HtmlCssJavascript
  Result: 3 posts/year (Status: OK, Last: 2025-10-15)
Processing feed 63/1263: Software As She's Developed
  Feed URL: http://softwareas.com/feed
  Result: 0 posts/year (Status: OLD, Last: 2024-12-21)
Processing feed 64/1263: Lea Verou
  Feed URL: http://leaverou.me/feed/
  Result: 0 posts/year (Status: OLD, Last: 2023-08-31)
Processing feed 65/1263: Smashing Coding
  Feed URL: http://rss1.smashingmagazine.com/feed/?f=coding-std
  Result: 40 posts/year (Status: OK, Last: 2025-12-30)
Processing feed 66/1263: Universe Today
  Feed URL: http://www.universetoday.com/universetoday.xml
  Result: 20 posts/year (Status: OK, Last: 2026-01-02)
Processing feed 67/1263: Centauri Dreams — Imagining and Planning Interstellar Exploration
  Feed URL: https://follow.it/centauri-dreams-imagining-and-planning-interstellar-exploration/rss
  Result: 20 posts/year (Status: OK, Last: 2026-01-01)
Processing feed 68/1263: The Space Review
  Feed URL: http://www.thespacereview.com/articles.xml
  Result: 214 posts/year (Status: OK, Last: 2025-12-22)
Processing feed 69/1263: SPACE.com
  Feed URL: http://www.space.com/syn/space.xml
  Result: 50 posts/year (Status: OK, Last: 2026-01-03)
Processing feed 70/1263: astrobites
  Feed URL: http://astrobites.com/feed/
  Result: 10 posts/year (Status: OK, Last: 2026-01-01)
Processing feed 71/1263: SkyandTelescope.com's Most Recent Articles
  Feed URL: http://www.skyandtelescope.com/MostRecent.rss
  Result: 0 posts/year (Status: ERROR, Last: None)
Processing feed 72/1263: Cycling UK Forum
  Feed URL: https://forum.cyclinguk.org/app.php/feed/forum/55?sid=c640585fb4d2be3887a7e8505b9de849
  Result: 10 posts/year (Status: OK, Last: 2026-01-01)
Processing feed 73/1263: Ye Olde Blogroll — Firehose
  Feed URL: https://blogroll.org/feed/
  Result: 9 posts/year (Status: OK, Last: 2025-11-28)
Processing feed 74/1263: 채널예스 : ARTICLE
  Feed URL: http://ch.yes24.com/feed/columns/
  Result: 0 posts/year (Status: ERROR, Last: None)
Processing feed 75/1263: The Free Press
  Feed URL: https://bariweiss.substack.com/feed/
  Result: 20 posts/year (Status: OK, Last: 2026-01-03)
Processing feed 76/1263: Discover Blogs
  Feed URL: http://feeds.feedburner.com/DiscoverBlogs
  Result: 20 posts/year (Status: OK, Last: 2026-01-02)
Processing feed 77/1263: Opinion | The Guardian
  Feed URL: http://feeds.theguardian.com/theguardian/us/commentisfree/rss
  Result: 22 posts/year (Status: OK, Last: 2026-01-03)
Processing feed 78/1263: 강갑생의 바퀴와 날개
  Feed URL: https://rss.diffbot.com/rss?url=https://www.joongang.co.kr/series/11059
  Result: 24 posts/year (Status: OK, Last: 2025-12-30)
Processing feed 79/1263: InfoQ
  Feed URL: http://www.infoq.com/rss/rss.action
  Result: 15 posts/year (Status: OK, Last: 2026-01-03)
Processing feed 80/1263: TechBlogPosts
  Feed URL: https://techblogposts.com/rss.xml
  Result: 10 posts/year (Status: OK, Last: 2026-01-02)
Processing feed 81/1263: BBC News
  Feed URL: http://newsrss.bbc.co.uk/rss/newsonline_world_edition/technology/rss.xml
  Result: 56 posts/year (Status: OK, Last: 2026-01-02)
Processing feed 82/1263: 클리앙 : 사용기
  Feed URL: https://rss.diffbot.com/rss?url=https://www.clien.net/service/board/use
  Result: 0 posts/year (Status: ERROR, Last: None)
Processing feed 83/1263: ErgoMechBoards
  Feed URL: https://rss.diffbot.com/rss?url=https://www.reddit.com/r/ErgoMechKeyboards/
  Result: 0 posts/year (Status: ERROR, Last: None)
Processing feed 84/1263: 책과 생각 뉴스
  Feed URL: https://rss.diffbot.com/rss?url=https://www.hani.co.kr/arti/culture/book
  Result: 0 posts/year (Status: ERROR, Last: None)
Processing feed 85/1263: 개발한당
  Feed URL: https://rss.diffbot.com/rss?url=https://damoang.net/development
  Result: 0 posts/year (Status: ERROR, Last: None)
Processing feed 86/1263: Time Out London
  Feed URL: http://www.timeout.com/london/blog/feed.rss
  Result: 100 posts/year (Status: OK, Last: 2026-01-02)
Processing feed 87/1263: Bear Blog Trending Posts
  Feed URL: https://bearblog.dev/discover/feed/
  Result: 20 posts/year (Status: OK, Last: 2026-01-02)
Processing feed 88/1263: Tip Tech : KBDMania
  Feed URL: http://www.kbdmania.net/xe/?mid=tipandtech&act=rss
  Result: 0 posts/year (Status: OLD, Last: 2022-01-27)
Processing feed 89/1263: OECD.org - Korea
  Feed URL: http://www.oecd.org/RSS_channel/0,3045,en_33873108_33873555_1_1_1_1_1,00.xml
  Result: 0 posts/year (Status: ERROR, Last: None)
Processing feed 90/1263: Life is Good
  Feed URL: http://feeds.feedburner.com/tistory-lifeisgood
  Result: 0 posts/year (Status: OLD, Last: 2023-10-17)
Processing feed 91/1263: 대영제국에서 온 편지
  Feed URL: https://kill-the-newsletter.com/feeds/jhj2a69t5g5lu93s.xml
  Result: 0 posts/year (Status: OLD, Last: 2022-04-04)
Processing feed 92/1263: Paul Graham: Essays
  Feed URL: http://www.aaronsw.com/2002/feeds/pgessays.rss
  Result: 0 posts/year (Status: OLD, Last: None)
Processing feed 93/1263: PATENT DROP
  Feed URL: https://patentdrop.substack.com/feed/
  Result: 0 posts/year (Status: EMPTY, Last: None)
Processing feed 94/1263: 이글루스 '얼리어답터' 테마 인기글
  Feed URL: http://valley.egloos.com/theme/rss/top/earlyadopter
  Result: 0 posts/year (Status: ERROR, Last: None)
Processing feed 95/1263: The Rebooting
  Feed URL: https://therebooting.substack.com/feed/
  Result: 0 posts/year (Status: OLD, Last: 2023-12-18)
Processing feed 96/1263: 박태웅
  Feed URL: https://brunch.co.kr/rss/@@Qk4
  Result: 4 posts/year (Status: OK, Last: 2025-10-27)
Processing feed 97/1263: nixCraft Linux Sys Admin Blog
  Feed URL: http://feeds.cyberciti.biz/Nixcraft-LinuxFreebsdSolarisTipsTricks
  Result: 9 posts/year (Status: OK, Last: 2025-03-18)
Processing feed 98/1263: Software As She's Developed
  Feed URL: http://softwareas.com/feed
  Result: 0 posts/year (Status: OLD, Last: 2024-12-21)
Processing feed 99/1263: tech.ssut
  Feed URL: https://tech.ssut.me/rss/
  Result: 1 posts/year (Status: OK, Last: 2025-05-10)
Processing feed 100/1263: Starkey Comics
  Feed URL: https://starkeycomics.com/feed/
  Result: 10 posts/year (Status: OK, Last: 2025-10-31)
Processing feed 101/1263: 컬리 기술 블로그
  Feed URL: http://thefarmersfront.github.io/feed.xml
  Result: 24 posts/year (Status: OK, Last: 2025-12-23)
Processing feed 102/1263: 과학 – NewsPeppermint
  Feed URL: http://newspeppermint.com/category/science-environment/feed/
  Result: 0 posts/year (Status: OLD, Last: 2023-02-27)
Processing feed 103/1263: 라디오키즈@LifeLog
  Feed URL: http://feeds.neoearly.net/radiokidz
  Result: 0 posts/year (Status: EMPTY, Last: None)
Processing feed 104/1263: Joel on Software
  Feed URL: http://www.joelonsoftware.com/rss.xml
  Result: 0 posts/year (Status: OLD, Last: 2022-12-19)
Processing feed 105/1263: Alden's Dev Log
  Feed URL: https://alden-kang.tistory.com/rss
  Result: 0 posts/year (Status: OLD, Last: 2023-02-19)
Processing feed 106/1263: Fathy Boundjadj
  Feed URL: https://fathy.fr/rss.xml
  Result: 0 posts/year (Status: OLD, Last: 2023-01-27)
Processing feed 107/1263: 노란 잠수함
  Feed URL: http://blog.rss.naver.com/rockks77.xml
  Result: 0 posts/year (Status: OLD, Last: 2015-06-16)
