Feedly Feed Analysis Log - 2026-01-03 17:00:07
User request: Parse OPML file and analyze feed frequencies
Input file: feedly.opml
Output file: feedly_feeds.jsonl
============================================================

Processing feed: HowToCreate - Opera
  Feed URL: http://www.howtocreate.co.uk/operaStuff/operaStuff.xml
  Result: 0 posts/year (Status: OLD, Last: 2009-05-22)

Processing feed: 오마이뉴스 - 사회
  Feed URL: http://rss.ohmynews.com/rss/society.xml
  Result: 20 posts/year (Status: OK, Last: 2026-01-03)

Processing feed: 미디어오늘 - 전체기사
  Feed URL: http://www.mediatoday.co.kr/rss/allArticle.xml
  Result: 50 posts/year (Status: OK, Last: 2026-01-03)

Processing feed: 뉴스톱 - 전체기사
  Feed URL: http://www.newstof.com/rss/allArticle.xml
  Result: 50 posts/year (Status: OK, Last: 2026-01-02)

Processing feed: 오늘의뉴스
  Feed URL: http://rss.etnews.co.kr/Section901.xml
  Result: 14 posts/year (Status: OK, Last: 2026-01-03)

Processing feed: London Review of Books
  Feed URL: http://www.lrb.co.uk/homerss.xml
  Result: 0 posts/year (Status: ERROR, Last: None)

Processing feed: 주요기사 : 뉴스 : 한겨레 뉴스 - 인터넷한겨레
  Feed URL: http://www.hani.co.kr/rss/lead/
  Result: 0 posts/year (Status: ERROR, Last: None)

Processing feed: 많이본기사 : 뉴스 : 한겨레 뉴스 - 인터넷한겨레
  Feed URL: http://www.hani.co.kr/rss/newsrank/
  Result: 70 posts/year (Status: OK, Last: 2026-01-03)

Processing feed: 채널예스 : 영화
  Feed URL: http://ch.yes24.com/feed/column/2172
  Result: 0 posts/year (Status: ERROR, Last: None)

Processing feed: 채널예스 : 책
  Feed URL: http://ch.yes24.com/feed/column/2162
  Result: 0 posts/year (Status: ERROR, Last: None)

Processing feed: 채널예스 : 만나고 싶었어요!
  Feed URL: http://ch.yes24.com/feed/columns/1958
  Result: 0 posts/year (Status: ERROR, Last: None)

Processing feed: Philosophy Now
  Feed URL: http://www.philosophynow.org/rss
  Result: 33 posts/year (Status: OK, Last: 2025-12-06)

Processing feed: NewsPeppermint » Feed
  Feed URL: http://newspeppermint.com/feed/
  Result: 10 posts/year (Status: OK, Last: 2025-05-15)

Processing feed: Potentials, IEEE - new TOC
  Feed URL: http://ieeexplore.ieee.org/rss/TOC45.XML
  Result: 13 posts/year (Status: OK, Last: 2025-11-07)

Processing feed: 클리앙 : 달린당
  Feed URL: https://rss.diffbot.com/rss?url=https://www.clien.net/service/board/cm_running
  Result: 0 posts/year (Status: ERROR, Last: None)

Processing feed: 채널예스 : 작가와의 만남
  Feed URL: http://ch.yes24.com/feed/columns/1959
  Result: 0 posts/year (Status: ERROR, Last: None)

Processing feed: What's On
  Feed URL: https://rss.diffbot.com/rss?url=https://www.gresham.ac.uk/whats-on
  Result: 0 posts/year (Status: ERROR, Last: None)

Processing feed: News Shopper | Bexley
  Feed URL: http://www.newsshopper.co.uk/news/bexley/rss/
  Result: 50 posts/year (Status: OK, Last: 2026-01-03)

Processing feed: Aeon | a world of ideas
  Feed URL: https://aeon.co/feed.rss
  Result: 20 posts/year (Status: OK, Last: 2025-12-22)

Processing feed: 채널예스 : 대중문화
  Feed URL: http://ch.yes24.com/feed/column/2165
  Result: 0 posts/year (Status: ERROR, Last: None)

Processing feed: 채널예스 : 음악
  Feed URL: http://ch.yes24.com/feed/column/2163
  Result: 0 posts/year (Status: ERROR, Last: None)

Processing feed: 채널예스 : 여행/취미
  Feed URL: http://ch.yes24.com/feed/column/2168
  Result: 0 posts/year (Status: ERROR, Last: None)

Processing feed: Merriam-Webster's Word of the Day
  Feed URL: http://www.merriam-webster.com/word/index.xml
  Result: 10 posts/year (Status: OK, Last: 2026-01-03)

Processing feed: 채널예스 : 특집 기획
  Feed URL: http://ch.yes24.com/feed/column/2184
  Result: 0 posts/year (Status: ERROR, Last: None)

Processing feed: IEEE Annals of the History of Computing - new TOC
  Feed URL: http://ieeexplore.ieee.org/rss/TOC85.XML
  Result: 25 posts/year (Status: OK, Last: 2025-12-23)

Processing feed: Terence Eden’s Blog
  Feed URL: https://shkspr.mobi/blog/feed/atom/
  Result: 20 posts/year (Status: OK, Last: 2026-01-03)

Processing feed: Toxel.com
  Feed URL: http://feeds.feedburner.com/toxel
  Result: 10 posts/year (Status: OK, Last: 2026-01-02)

Processing feed: 채널예스 : 주목, 이주의 신간
  Feed URL: http://ch.yes24.com/feed/column/2177
  Result: 0 posts/year (Status: ERROR, Last: None)

Processing feed: MakeUseOf - iPhone
  Feed URL: http://www.makeuseof.com/service/ios/feed/
  Result: 10 posts/year (Status: OK, Last: 2026-01-01)

Processing feed: Semafor
  Feed URL: https://www.semafor.com/rss.xml
  Result: 99 posts/year (Status: OK, Last: 2026-01-03)

Processing feed: Computing | The Guardian
  Feed URL: http://www.guardian.co.uk/technology/computing/rss
  Result: 20 posts/year (Status: OK, Last: 2026-01-03)

Processing feed: Hack a Day
  Feed URL: http://hackaday.com/feed/
  Result: 7 posts/year (Status: OK, Last: 2026-01-03)

Processing feed: Best of The Atlantic
  Feed URL: http://feeds.feedburner.com/Best-Of-The-Atlantic
  Result: 23 posts/year (Status: OK, Last: 2026-01-03)

Processing feed: 디에디트
  Feed URL: http://the-edit.co.kr/feed
  Result: 10 posts/year (Status: OK, Last: 2026-01-02)

Processing feed: BBC News
  Feed URL: http://newsrss.bbc.co.uk/rss/newsonline_world_edition/business/rss.xml
  Result: 50 posts/year (Status: OK, Last: 2026-01-03)

Processing feed: FlowingData
  Feed URL: http://feeds.feedburner.com/FlowingData
  Result: 10 posts/year (Status: OK, Last: 2026-01-02)

Processing feed: Wired Top Stories
  Feed URL: http://www.wired.com/news/feeds/rss2/0,2610,,00.xml
  Result: 0 posts/year (Status: ERROR, Last: None)

Processing feed: Phoronix
  Feed URL: http://www.phoronix.com/rss.php
  Result: 32 posts/year (Status: OK, Last: 2026-01-03)

Processing feed: Everything
  Feed URL: http://www.newyorker.com/services/mrss/feeds/everything.xml
  Result: 50 posts/year (Status: OK, Last: 2026-01-03)

Processing feed: Spectrum, IEEE - new TOC
  Feed URL: http://ieeexplore.ieee.org/rss/TOC6.XML
  Result: 23 posts/year (Status: OK, Last: 2025-12-10)

Processing feed: Transactions on Computers - new TOC
  Feed URL: http://ieeexplore.ieee.org/rss/TOC12.XML
  Result: 29 posts/year (Status: OK, Last: 2025-11-14)

Processing feed: 거리의 풍경
  Feed URL: http://blog.rss.naver.com/unviajero.xml
  Result: 50 posts/year (Status: OK, Last: 2026-01-02)

Processing feed: Computer - new TOC
  Feed URL: http://ieeexplore.ieee.org/rss/TOC2.XML
  Result: 50 posts/year (Status: OK, Last: 2025-12-31)

Processing feed: Atlas Obscura
  Feed URL: http://atlasobscura.com/rss.xml
  Result: 24 posts/year (Status: OK, Last: 2026-01-03)

Processing feed: 지도와 Web2.0 그리고 한국의 미래
  Feed URL: http://feeds2.feedburner.com/blogspot/InternetMap
  Result: 10 posts/year (Status: OK, Last: 2025-12-29)

Processing feed: Christian Heilmann
  Feed URL: http://www.wait-till-i.com/wp-atom.php
  Result: 0 posts/year (Status: ERROR, Last: None)

Processing feed: Jonathan Snook
  Feed URL: http://feeds.feedburner.com/snookca
  Result: 8 posts/year (Status: OK, Last: 2025-12-31)

Processing feed: Engadget
  Feed URL: http://www.engadget.com/rss.xml
  Result: 50 posts/year (Status: OK, Last: 2026-01-03)

Processing feed: Remy Sharp
  Feed URL: http://feeds.feedburner.com/remysharp
  Result: 43 posts/year (Status: OK, Last: 2026-01-02)

Processing feed: HTML + CSS + JavaScript
  Feed URL: http://feeds2.feedburner.com/HtmlCssJavascript
  Result: 3 posts/year (Status: OK, Last: 2025-10-15)

Processing feed: Bruce Lawson's personal site
  Feed URL: http://www.brucelawson.co.uk/feed/
  Result: 6 posts/year (Status: OK, Last: 2025-12-12)

Processing feed: Lea Verou
  Feed URL: http://leaverou.me/feed/
  Result: 0 posts/year (Status: OLD, Last: 2023-08-31)

Processing feed: Software As She's Developed
  Feed URL: http://softwareas.com/feed
  Result: 0 posts/year (Status: OLD, Last: 2024-12-21)

Processing feed: Universe Today
  Feed URL: http://www.universetoday.com/universetoday.xml
  Result: 20 posts/year (Status: OK, Last: 2026-01-02)

Processing feed: Nettuts+
  Feed URL: http://net.tutsplus.com/feed/
  Result: 9 posts/year (Status: OK, Last: 2025-07-21)

Processing feed: Smashing Coding
  Feed URL: http://rss1.smashingmagazine.com/feed/?f=coding-std
  Result: 40 posts/year (Status: OK, Last: 2025-12-30)

Processing feed: Centauri Dreams — Imagining and Planning Interstellar Exploration
  Feed URL: https://follow.it/centauri-dreams-imagining-and-planning-interstellar-exploration/rss
  Result: 20 posts/year (Status: OK, Last: 2026-01-01)

Processing feed: SPACE.com
  Feed URL: http://www.space.com/syn/space.xml
  Result: 50 posts/year (Status: OK, Last: 2026-01-03)

Processing feed: astrobites
  Feed URL: http://astrobites.com/feed/
  Result: 10 posts/year (Status: OK, Last: 2026-01-01)

Processing feed: Thoughts From Eric
  Feed URL: http://meyerweb.com/eric/thoughts/rss2/summary
  Result: 10 posts/year (Status: OK, Last: 2025-12-19)

Processing feed: The Space Review
  Feed URL: http://www.thespacereview.com/articles.xml
  Result: 214 posts/year (Status: OK, Last: 2025-12-22)

Processing feed: Cycling UK Forum
  Feed URL: https://forum.cyclinguk.org/app.php/feed/forum/55?sid=c640585fb4d2be3887a7e8505b9de849
  Result: 10 posts/year (Status: OK, Last: 2026-01-01)

Processing feed: Ye Olde Blogroll — Firehose
  Feed URL: https://blogroll.org/feed/
  Result: 9 posts/year (Status: OK, Last: 2025-10-18)

Processing feed: Discover Blogs
  Feed URL: http://feeds.feedburner.com/DiscoverBlogs
  Result: 20 posts/year (Status: OK, Last: 2026-01-03)

Processing feed: The Free Press
  Feed URL: https://bariweiss.substack.com/feed/
  Result: 20 posts/year (Status: OK, Last: 2026-01-03)

Processing feed: Opinion | The Guardian
  Feed URL: http://feeds.theguardian.com/theguardian/us/commentisfree/rss
  Result: 22 posts/year (Status: OK, Last: 2026-01-03)

Processing feed: SkyandTelescope.com's Most Recent Articles
  Feed URL: http://www.skyandtelescope.com/MostRecent.rss
  Result: 0 posts/year (Status: ERROR, Last: None)

Processing feed: TechBlogPosts
  Feed URL: https://techblogposts.com/rss.xml
  Result: 10 posts/year (Status: OK, Last: 2026-01-02)

Processing feed: 채널예스 : ARTICLE
  Feed URL: http://ch.yes24.com/feed/columns/
  Result: 0 posts/year (Status: ERROR, Last: None)

Processing feed: InfoQ
  Feed URL: http://www.infoq.com/rss/rss.action
  Result: 15 posts/year (Status: OK, Last: 2026-01-03)

Processing feed: 클리앙 : 덕질한당
  Feed URL: https://rss.diffbot.com/rss?url=https://www.clien.net/service/board/cm_ku
  Result: 0 posts/year (Status: ERROR, Last: None)

Processing feed: 그림만화 BEST
  Feed URL: https://rss.diffbot.com/rss?url=https://m.ruliweb.com/best/cartoon
  Result: 0 posts/year (Status: ERROR, Last: None)

Processing feed: BBC News
  Feed URL: http://newsrss.bbc.co.uk/rss/newsonline_world_edition/technology/rss.xml
  Result: 56 posts/year (Status: OK, Last: 2026-01-02)

Processing feed: Time Out London
  Feed URL: http://www.timeout.com/london/blog/feed.rss
  Result: 100 posts/year (Status: OK, Last: 2026-01-02)

Processing feed: Bear Blog Trending Posts
  Feed URL: https://bearblog.dev/discover/feed/
  Result: 20 posts/year (Status: OK, Last: 2026-01-03)

Processing feed: Tip Tech : KBDMania
  Feed URL: http://www.kbdmania.net/xe/?mid=tipandtech&act=rss
  Result: 0 posts/year (Status: OLD, Last: 2022-01-27)

Processing feed: OECD.org - Korea
  Feed URL: http://www.oecd.org/RSS_channel/0,3045,en_33873108_33873555_1_1_1_1_1,00.xml
  Result: 0 posts/year (Status: ERROR, Last: None)

Processing feed: Life is Good
  Feed URL: http://feeds.feedburner.com/tistory-lifeisgood
  Result: 0 posts/year (Status: OLD, Last: 2023-10-17)

Processing feed: ErgoMechBoards
  Feed URL: https://rss.diffbot.com/rss?url=https://www.reddit.com/r/ErgoMechKeyboards/
  Result: 3 posts/year (Status: OK, Last: 2026-01-03)

Processing feed: Paul Graham: Essays
  Feed URL: http://www.aaronsw.com/2002/feeds/pgessays.rss
  Result: 0 posts/year (Status: OLD, Last: None)

Processing feed: PATENT DROP
  Feed URL: https://patentdrop.substack.com/feed/
  Result: 0 posts/year (Status: EMPTY, Last: None)

Processing feed: 이글루스 '얼리어답터' 테마 인기글
  Feed URL: http://valley.egloos.com/theme/rss/top/earlyadopter
  Result: 0 posts/year (Status: ERROR, Last: None)

Processing feed: The Rebooting
  Feed URL: https://therebooting.substack.com/feed/
  Result: 0 posts/year (Status: OLD, Last: 2023-12-18)

Processing feed: 박태웅
  Feed URL: https://brunch.co.kr/rss/@@Qk4
  Result: 4 posts/year (Status: OK, Last: 2025-10-27)

Processing feed: nixCraft Linux Sys Admin Blog
  Feed URL: http://feeds.cyberciti.biz/Nixcraft-LinuxFreebsdSolarisTipsTricks
  Result: 9 posts/year (Status: OK, Last: 2025-03-18)

Processing feed: 클리앙 : 날아간당
  Feed URL: https://rss.diffbot.com/rss?url=https://www.clien.net/service/board/cm_airplane
  Result: 0 posts/year (Status: ERROR, Last: None)

Processing feed: Starkey Comics
  Feed URL: https://starkeycomics.com/feed/
  Result: 10 posts/year (Status: OK, Last: 2025-10-31)

Processing feed: 컬리 기술 블로그
  Feed URL: http://thefarmersfront.github.io/feed.xml
  Result: 24 posts/year (Status: OK, Last: 2025-12-23)

Processing feed: tech.ssut
  Feed URL: https://tech.ssut.me/rss/
  Result: 1 posts/year (Status: OK, Last: 2025-05-10)

Processing feed: 라디오키즈@LifeLog
  Feed URL: http://feeds.neoearly.net/radiokidz
  Result: 0 posts/year (Status: EMPTY, Last: None)

Processing feed: Joel on Software
  Feed URL: http://www.joelonsoftware.com/rss.xml
  Result: 0 posts/year (Status: OLD, Last: 2022-12-19)

Processing feed: Alden's Dev Log
  Feed URL: https://alden-kang.tistory.com/rss
  Result: 0 posts/year (Status: OLD, Last: 2023-02-19)

Processing feed: Fathy Boundjadj
  Feed URL: https://fathy.fr/rss.xml
  Result: 0 posts/year (Status: OLD, Last: 2023-01-27)

Processing feed: 노란 잠수함
  Feed URL: http://blog.rss.naver.com/rockks77.xml
  Result: 0 posts/year (Status: OLD, Last: 2015-06-16)

Processing feed: 달린당
  Feed URL: https://rss.diffbot.com/rss?url=https://damoang.net/running
  Result: 0 posts/year (Status: ERROR, Last: None)

Processing feed: 과학 – NewsPeppermint
  Feed URL: http://newspeppermint.com/category/science-environment/feed/
  Result: 0 posts/year (Status: OLD, Last: 2023-02-27)

Processing feed: Design in government
  Feed URL: https://designnotes.blog.gov.uk/feed/
  Result: 5 posts/year (Status: OK, Last: 2025-12-09)

Processing feed: 바다건너당
  Feed URL: https://rss.diffbot.com/rss?url=https://damoang.net/overseas
  Result: 0 posts/year (Status: ERROR, Last: None)

Processing feed: 딥다이브
  Feed URL: https://kill-the-newsletter.com/feeds/n6qd9vhay5vjko7z.xml
  Result: 0 posts/year (Status: OLD, Last: 2023-03-19)

Processing feed: Instructables: featured
  Feed URL: http://feeds.feedburner.com/instructables/featured
  Result: 0 posts/year (Status: OLD, Last: 2019-11-05)

Processing feed: 이기적이고 주관적이고 객관성없는곳
  Feed URL: http://blog.rss.naver.com/raimorenji.xml
  Result: 0 posts/year (Status: OLD, Last: 2023-06-23)

Processing feed: (구)아이포니앙
  Feed URL: https://rss.diffbot.com/rss?url=https://damoang.net/iphone
  Result: 0 posts/year (Status: OLD, Last: 2024-04-15)

Processing feed: CaN (Computer & Network) Tips
  Feed URL: http://pakcw.cafe24.com/rss
  Result: 0 posts/year (Status: ERROR, Last: None)

Processing feed: Roy Tanck
  Feed URL: http://feeds.feedburner.com/RoyTancksWeblog
  Result: 6 posts/year (Status: OK, Last: 2025-07-30)

Processing feed: Posts on Tech Notes by Natan Yellin
  Feed URL: https://natanyellin.com/posts/index.xml
  Result: 0 posts/year (Status: OLD, Last: 2023-04-17)

Processing feed: 책습관
  Feed URL: https://brunch.co.kr/rss/@@hTC
  Result: 0 posts/year (Status: OLD, Last: 2018-11-23)

Processing feed: Kellan Elliott-McCrea: Blog
  Feed URL: http://laughingmeme.org/feed
  Result: 2 posts/year (Status: OK, Last: 2025-06-01)

Processing feed: 이글루스 '도서' 테마 인기글
  Feed URL: http://valley.egloos.com/theme/rss/top/book
  Result: 0 posts/year (Status: ERROR, Last: None)

