Feedly Feed Analysis Log - 2026-01-03 13:10:59
User request: Parse OPML file and analyze feed frequencies
Input file: ./feedly.opml
Output file: ./feedly_feeds.jsonl
============================================================

Processing feed 1/1263: NewsPeppermint » Feed
  Feed URL: http://newspeppermint.com/feed/
  Result: 10 posts/year (Status: OK, Last: 2025-05-15)
Processing feed 2/1263: HowToCreate - Opera
  Feed URL: http://www.howtocreate.co.uk/operaStuff/operaStuff.xml
  Result: 0 posts/year (Status: OLD, Last: 2009-05-22)
Processing feed 3/1263: 오늘의뉴스
  Feed URL: http://rss.etnews.co.kr/Section901.xml
  Result: 14 posts/year (Status: OK, Last: 2026-01-03)
Processing feed 4/1263: 많이본기사 : 뉴스 : 한겨레 뉴스 - 인터넷한겨레
  Feed URL: http://www.hani.co.kr/rss/newsrank/
  Result: 70 posts/year (Status: OK, Last: 2026-01-03)
