Feedly Feed Analysis Log - 2026-01-03 19:08:41
User request: Parse OPML file and analyze feed frequencies
Input file: feedly.opml
Output file: feedly_feeds.jsonl
============================================================

Processing feed: HowToCreate - Opera
  Feed URL: http://www.howtocreate.co.uk/operaStuff/operaStuff.xml
  Result: 0 posts/year (Status: OLD, Last: 2009-05-22)

Processing feed: London Review of Books
  Feed URL: http://www.lrb.co.uk/homerss.xml
  Result: 0 posts/year (Status: ERROR, Last: None)

Processing feed: Philosophy Now
  Feed URL: http://www.philosophynow.org/rss
  Result: 33 posts/year (Status: OK, Last: 2025-12-06)

Processing feed: 주요기사 : 뉴스 : 한겨레 뉴스 - 인터넷한겨레
  Feed URL: http://www.hani.co.kr/rss/lead/
  Result: 0 posts/year (Status: ERROR, Last: None)

Processing feed: Potentials, IEEE - new TOC
  Feed URL: http://ieeexplore.ieee.org/rss/TOC45.XML
  Result: 7 posts/year (Status: OK, Last: 2025-11-07)

Processing feed: 미디어오늘 - 전체기사
  Feed URL: http://www.mediatoday.co.kr/rss/allArticle.xml
  Result: 5157 posts/year (Status: OK, Last: 2026-01-04)

Processing feed: 뉴스톱 - 전체기사
  Feed URL: http://www.newstof.com/rss/allArticle.xml
  Result: 7469 posts/year (Status: OK, Last: 2026-01-02)

Processing feed: News Shopper | Bexley
  Feed URL: http://www.newsshopper.co.uk/news/bexley/rss/
  Result: 300 posts/year (Status: OK, Last: 2026-01-03)

Processing feed: 많이본기사 : 뉴스 : 한겨레 뉴스 - 인터넷한겨레
  Feed URL: http://www.hani.co.kr/rss/newsrank/
  Result: 70 posts/year (Status: OK, Last: 2026-01-03)

Processing feed: 오늘의뉴스
  Feed URL: http://rss.etnews.co.kr/Section901.xml
  Result: 5309 posts/year (Status: OK, Last: 2026-01-03)

Processing feed: 오마이뉴스 - 사회
  Feed URL: http://rss.ohmynews.com/rss/society.xml
  Result: 5078 posts/year (Status: OK, Last: 2026-01-03)

Processing feed: 클리앙 : 달린당
  Feed URL: https://rss.diffbot.com/rss?url=https://www.clien.net/service/board/cm_running
  Result: 0 posts/year (Status: ERROR, Last: None)

Processing feed: Aeon | a world of ideas
  Feed URL: https://aeon.co/feed.rss
  Result: 365 posts/year (Status: OK, Last: 2025-12-22)

Processing feed: NewsPeppermint » Feed
  Feed URL: http://newspeppermint.com/feed/
  Result: 96 posts/year (Status: OK, Last: 2025-05-15)

Processing feed: Terence Eden’s Blog
  Feed URL: https://shkspr.mobi/blog/feed/atom/
  Result: 187 posts/year (Status: OK, Last: 2026-01-03)

Processing feed: IEEE Annals of the History of Computing - new TOC
  Feed URL: http://ieeexplore.ieee.org/rss/TOC85.XML
  Result: 8 posts/year (Status: OK, Last: 2025-12-23)

Processing feed: Merriam-Webster's Word of the Day
  Feed URL: http://www.merriam-webster.com/word/index.xml
  Result: 365 posts/year (Status: OK, Last: 2026-01-03)

Processing feed: Toxel.com
  Feed URL: http://feeds.feedburner.com/toxel
  Result: 364 posts/year (Status: OK, Last: 2026-01-02)

Processing feed: Computing | The Guardian
  Feed URL: http://www.guardian.co.uk/technology/computing/rss
  Result: 853 posts/year (Status: OK, Last: 2026-01-03)

Processing feed: Semafor
  Feed URL: https://www.semafor.com/rss.xml
  Result: 3701 posts/year (Status: OK, Last: 2026-01-03)

Processing feed: MakeUseOf - iPhone
  Feed URL: http://www.makeuseof.com/service/ios/feed/
  Result: 251 posts/year (Status: OK, Last: 2026-01-01)

Processing feed: 채널예스 : 만나고 싶었어요!
  Feed URL: http://ch.yes24.com/feed/columns/1958
  Result: 0 posts/year (Status: ERROR, Last: None)

Processing feed: 채널예스 : 작가와의 만남
  Feed URL: http://ch.yes24.com/feed/columns/1959
  Result: 0 posts/year (Status: ERROR, Last: None)

Processing feed: 디에디트
  Feed URL: http://the-edit.co.kr/feed
  Result: 218 posts/year (Status: OK, Last: 2026-01-02)

Processing feed: 채널예스 : 영화
  Feed URL: http://ch.yes24.com/feed/column/2172
  Result: 0 posts/year (Status: ERROR, Last: None)

Processing feed: 채널예스 : 책
  Feed URL: http://ch.yes24.com/feed/column/2162
  Result: 0 posts/year (Status: ERROR, Last: None)

Processing feed: 채널예스 : 특집 기획
  Feed URL: http://ch.yes24.com/feed/column/2184
  Result: 0 posts/year (Status: ERROR, Last: None)

Processing feed: 채널예스 : 여행/취미
  Feed URL: http://ch.yes24.com/feed/column/2168
  Result: 0 posts/year (Status: ERROR, Last: None)

Processing feed: Best of The Atlantic
  Feed URL: http://feeds.feedburner.com/Best-Of-The-Atlantic
  Result: 27 posts/year (Status: OK, Last: 2026-01-03)

Processing feed: 채널예스 : 음악
  Feed URL: http://ch.yes24.com/feed/column/2163
  Result: 0 posts/year (Status: ERROR, Last: None)

Processing feed: Hack a Day
  Feed URL: http://hackaday.com/feed/
  Result: 2922 posts/year (Status: OK, Last: 2026-01-03)

Processing feed: 채널예스 : 대중문화
  Feed URL: http://ch.yes24.com/feed/column/2165
  Result: 0 posts/year (Status: ERROR, Last: None)

Processing feed: 채널예스 : 주목, 이주의 신간
  Feed URL: http://ch.yes24.com/feed/column/2177
  Result: 0 posts/year (Status: ERROR, Last: None)

Processing feed: BBC News
  Feed URL: http://newsrss.bbc.co.uk/rss/newsonline_world_edition/business/rss.xml
  Result: 216 posts/year (Status: OK, Last: 2026-01-03)

Processing feed: Spectrum, IEEE - new TOC
  Feed URL: http://ieeexplore.ieee.org/rss/TOC6.XML
  Result: 23 posts/year (Status: OK, Last: 2025-12-10)

Processing feed: Transactions on Computers - new TOC
  Feed URL: http://ieeexplore.ieee.org/rss/TOC12.XML
  Result: 146 posts/year (Status: OK, Last: 2025-11-14)

Processing feed: Phoronix
  Feed URL: http://www.phoronix.com/rss.php
  Result: 2971 posts/year (Status: OK, Last: 2026-01-03)

Processing feed: Everything
  Feed URL: http://www.newyorker.com/services/mrss/feeds/everything.xml
  Result: 669 posts/year (Status: OK, Last: 2026-01-03)

Processing feed: 지도와 Web2.0 그리고 한국의 미래
  Feed URL: http://feeds2.feedburner.com/blogspot/InternetMap
  Result: 17 posts/year (Status: OK, Last: 2025-12-29)

Processing feed: 거리의 풍경
  Feed URL: http://blog.rss.naver.com/unviajero.xml
  Result: 336 posts/year (Status: OK, Last: 2026-01-02)

Processing feed: Computer - new TOC
  Feed URL: http://ieeexplore.ieee.org/rss/TOC2.XML
  Result: 31536000 posts/year (Status: OK, Last: 2025-12-31)

Processing feed: Jonathan Snook
  Feed URL: http://feeds.feedburner.com/snookca
  Result: 20 posts/year (Status: OK, Last: 2025-12-31)

Processing feed: Christian Heilmann
  Feed URL: http://www.wait-till-i.com/wp-atom.php
  Result: 0 posts/year (Status: ERROR, Last: None)

Processing feed: Lea Verou
  Feed URL: http://leaverou.me/feed/
  Result: 0 posts/year (Status: OLD, Last: 2023-08-31)

Processing feed: Software As She's Developed
  Feed URL: http://softwareas.com/feed
  Result: 0 posts/year (Status: OLD, Last: 2024-12-21)

Processing feed: HTML + CSS + JavaScript
  Feed URL: http://feeds2.feedburner.com/HtmlCssJavascript
  Result: 9 posts/year (Status: OK, Last: 2025-10-15)

Processing feed: Universe Today
  Feed URL: http://www.universetoday.com/universetoday.xml
  Result: 1272 posts/year (Status: OK, Last: 2026-01-03)

Processing feed: What's On
  Feed URL: https://rss.diffbot.com/rss?url=https://www.gresham.ac.uk/whats-on
  Result: 0 posts/year (Status: OLD, Last: None)

Processing feed: Remy Sharp
  Feed URL: http://feeds.feedburner.com/remysharp
  Result: 42 posts/year (Status: OK, Last: 2026-01-02)

Processing feed: Atlas Obscura
  Feed URL: http://atlasobscura.com/rss.xml
  Result: 247 posts/year (Status: OK, Last: 2026-01-03)

Processing feed: Cycling UK Forum
  Feed URL: https://forum.cyclinguk.org/app.php/feed/forum/55?sid=c640585fb4d2be3887a7e8505b9de849
  Result: 4073 posts/year (Status: OK, Last: 2026-01-01)

Processing feed: Ye Olde Blogroll — Firehose
  Feed URL: https://blogroll.org/feed/
  Result: 14 posts/year (Status: OK, Last: 2025-11-20)

Processing feed: SPACE.com
  Feed URL: http://www.space.com/syn/space.xml
  Result: 3406 posts/year (Status: OK, Last: 2026-01-03)

Processing feed: astrobites
  Feed URL: http://astrobites.com/feed/
  Result: 237 posts/year (Status: OK, Last: 2026-01-01)

Processing feed: Engadget
  Feed URL: http://www.engadget.com/rss.xml
  Result: 4247 posts/year (Status: OK, Last: 2026-01-03)

Processing feed: Centauri Dreams — Imagining and Planning Interstellar Exploration
  Feed URL: https://follow.it/centauri-dreams-imagining-and-planning-interstellar-exploration/rss
  Result: 61 posts/year (Status: OK, Last: 2026-01-01)

Processing feed: Discover Blogs
  Feed URL: http://feeds.feedburner.com/DiscoverBlogs
  Result: 1796 posts/year (Status: OK, Last: 2026-01-03)

Processing feed: Opinion | The Guardian
  Feed URL: http://feeds.theguardian.com/theguardian/us/commentisfree/rss
  Result: 695 posts/year (Status: OK, Last: 2026-01-03)

Processing feed: The Space Review
  Feed URL: http://www.thespacereview.com/articles.xml
  Result: 222 posts/year (Status: OK, Last: 2025-12-22)

Processing feed: Bruce Lawson's personal site
  Feed URL: http://www.brucelawson.co.uk/feed/
  Result: 37 posts/year (Status: OK, Last: 2025-12-12)

Processing feed: The Free Press
  Feed URL: https://bariweiss.substack.com/feed/
  Result: 2164 posts/year (Status: OK, Last: 2026-01-03)

Processing feed: BBC News
  Feed URL: http://newsrss.bbc.co.uk/rss/newsonline_world_edition/technology/rss.xml
  Result: 299 posts/year (Status: OK, Last: 2026-01-02)

Processing feed: TechBlogPosts
  Feed URL: https://techblogposts.com/rss.xml
  Result: 1270 posts/year (Status: OK, Last: 2026-01-02)

Processing feed: Thoughts From Eric
  Feed URL: http://meyerweb.com/eric/thoughts/rss2/summary
  Result: 9 posts/year (Status: OK, Last: 2025-12-19)

Processing feed: Smashing Coding
  Feed URL: http://rss1.smashingmagazine.com/feed/?f=coding-std
  Result: 128 posts/year (Status: OK, Last: 2025-12-30)

Processing feed: SkyandTelescope.com's Most Recent Articles
  Feed URL: http://www.skyandtelescope.com/MostRecent.rss
  Result: 0 posts/year (Status: ERROR, Last: None)

Processing feed: Bear Blog Trending Posts
  Feed URL: https://bearblog.dev/discover/feed/
  Result: 1447 posts/year (Status: OK, Last: 2026-01-03)

Processing feed: 채널예스 : ARTICLE
  Feed URL: http://ch.yes24.com/feed/columns/
  Result: 0 posts/year (Status: ERROR, Last: None)

Processing feed: Time Out London
  Feed URL: http://www.timeout.com/london/blog/feed.rss
  Result: 1489 posts/year (Status: OK, Last: 2026-01-02)

Processing feed: InfoQ
  Feed URL: http://www.infoq.com/rss/rss.action
  Result: 1554 posts/year (Status: OK, Last: 2026-01-03)

Processing feed: Paul Graham: Essays
  Feed URL: http://www.aaronsw.com/2002/feeds/pgessays.rss
  Result: 0 posts/year (Status: OLD, Last: None)

Processing feed: Nettuts+
  Feed URL: http://net.tutsplus.com/feed/
  Result: 13 posts/year (Status: OK, Last: 2025-07-21)

Processing feed: 이글루스 '얼리어답터' 테마 인기글
  Feed URL: http://valley.egloos.com/theme/rss/top/earlyadopter
  Result: 0 posts/year (Status: ERROR, Last: None)

Processing feed: Life is Good
  Feed URL: http://feeds.feedburner.com/tistory-lifeisgood
  Result: 0 posts/year (Status: OLD, Last: 2023-10-17)

Processing feed: 클리앙 : 날아간당
  Feed URL: https://rss.diffbot.com/rss?url=https://www.clien.net/service/board/cm_airplane
  Result: 31 posts/year (Status: OK, Last: 2026-01-03)

Processing feed: PATENT DROP
  Feed URL: https://patentdrop.substack.com/feed/
  Result: 0 posts/year (Status: EMPTY, Last: None)

Processing feed: 대영제국에서 온 편지
  Feed URL: https://kill-the-newsletter.com/feeds/jhj2a69t5g5lu93s.xml
  Result: 0 posts/year (Status: OLD, Last: 2022-04-04)

Processing feed: FlowingData
  Feed URL: http://feeds.feedburner.com/FlowingData
  Result: 364 posts/year (Status: OK, Last: 2026-01-02)

Processing feed: Tip Tech : KBDMania
  Feed URL: http://www.kbdmania.net/xe/?mid=tipandtech&act=rss
  Result: 0 posts/year (Status: OLD, Last: 2022-01-27)

Processing feed: 클리앙 : 사용기
  Feed URL: https://rss.diffbot.com/rss?url=https://www.clien.net/service/board/use
  Result: 0 posts/year (Status: ERROR, Last: None)

Processing feed: 달린당
  Feed URL: https://rss.diffbot.com/rss?url=https://damoang.net/running
  Result: 0 posts/year (Status: ERROR, Last: None)

Processing feed: 바다건너당
  Feed URL: https://rss.diffbot.com/rss?url=https://damoang.net/overseas
  Result: 0 posts/year (Status: ERROR, Last: None)

Processing feed: 컬리 기술 블로그
  Feed URL: http://thefarmersfront.github.io/feed.xml
  Result: 17 posts/year (Status: OK, Last: 2025-12-23)

Processing feed: Wired Top Stories
  Feed URL: http://www.wired.com/news/feeds/rss2/0,2610,,00.xml
  Result: 0 posts/year (Status: ERROR, Last: None)

Processing feed: Fathy Boundjadj
  Feed URL: https://fathy.fr/rss.xml
  Result: 0 posts/year (Status: OLD, Last: 2023-01-27)

Processing feed: 박태웅
  Feed URL: https://brunch.co.kr/rss/@@Qk4
  Result: 147135 posts/year (Status: OK, Last: 2025-10-27)

Processing feed: 이글루스 '도서' 테마 인기글
  Feed URL: http://valley.egloos.com/theme/rss/top/book
  Result: 0 posts/year (Status: ERROR, Last: None)

Processing feed: The Rebooting
  Feed URL: https://therebooting.substack.com/feed/
  Result: 0 posts/year (Status: OLD, Last: 2023-12-18)

Processing feed: 라디오키즈@LifeLog
  Feed URL: http://feeds.neoearly.net/radiokidz
  Result: 0 posts/year (Status: ERROR, Last: None)

Processing feed: nixCraft Linux Sys Admin Blog
  Feed URL: http://feeds.cyberciti.biz/Nixcraft-LinuxFreebsdSolarisTipsTricks
  Result: 46 posts/year (Status: OK, Last: 2025-03-18)

Processing feed: 클리앙 : 덕질한당
  Feed URL: https://rss.diffbot.com/rss?url=https://www.clien.net/service/board/cm_ku
  Result: 31 posts/year (Status: OK, Last: 2025-12-26)

Processing feed: 이글루스 '애니메이션' 테마 인기글
  Feed URL: http://valley.egloos.com/theme/rss/top/animation
  Result: 0 posts/year (Status: ERROR, Last: None)

Processing feed: 딥다이브
  Feed URL: https://kill-the-newsletter.com/feeds/n6qd9vhay5vjko7z.xml
  Result: 0 posts/year (Status: OLD, Last: 2023-03-19)

Processing feed: Starkey Comics
  Feed URL: https://starkeycomics.com/feed/
  Result: 11 posts/year (Status: OK, Last: 2025-10-31)

Processing feed: Design in government
  Feed URL: https://designnotes.blog.gov.uk/feed/
  Result: 4 posts/year (Status: OK, Last: 2025-12-09)

Processing feed: Roy Tanck
  Feed URL: http://feeds.feedburner.com/RoyTancksWeblog
  Result: 12 posts/year (Status: OK, Last: 2025-07-30)

Processing feed: 과학 – NewsPeppermint
  Feed URL: http://newspeppermint.com/category/science-environment/feed/
  Result: 0 posts/year (Status: OLD, Last: 2023-02-27)

Processing feed: Joel on Software
  Feed URL: http://www.joelonsoftware.com/rss.xml
  Result: 0 posts/year (Status: OLD, Last: 2022-12-19)

Processing feed: 이기적이고 주관적이고 객관성없는곳
  Feed URL: http://blog.rss.naver.com/raimorenji.xml
  Result: 0 posts/year (Status: OLD, Last: 2023-06-23)

Processing feed: OECD.org - Korea
  Feed URL: http://www.oecd.org/RSS_channel/0,3045,en_33873108_33873555_1_1_1_1_1,00.xml
  Result: 0 posts/year (Status: ERROR, Last: None)

Processing feed: CaN (Computer & Network) Tips
  Feed URL: http://pakcw.cafe24.com/rss
  Result: 0 posts/year (Status: ERROR, Last: None)

Processing feed: 노란 잠수함
  Feed URL: http://blog.rss.naver.com/rockks77.xml
  Result: 0 posts/year (Status: OLD, Last: 2015-06-16)

Processing feed: Posts on Tech Notes by Natan Yellin
  Feed URL: https://natanyellin.com/posts/index.xml
  Result: 0 posts/year (Status: OLD, Last: 2023-04-17)

Processing feed: 썸원의 SUMMARY&EDIT
  Feed URL: https://kill-the-newsletter.com/feeds/9kaluz14ci2ppe19.xml
  Result: 0 posts/year (Status: OLD, Last: 2022-02-23)

Processing feed: Kellan Elliott-McCrea: Blog
  Feed URL: http://laughingmeme.org/feed
  Result: 52 posts/year (Status: OK, Last: 2025-06-01)

Processing feed: tech.ssut
  Feed URL: https://tech.ssut.me/rss/
  Result: 1 posts/year (Status: OK, Last: 2025-05-10)

Processing feed: High Scalability
  Feed URL: http://feeds.feedburner.com/HighScalability
  Result: 0 posts/year (Status: OLD, Last: 2023-08-16)

Processing feed: Blog Needs a Name
  Feed URL: https://rss.diffbot.com/rss?url=https://ahgamut.github.io/
  Result: 0 posts/year (Status: OLD, Last: 2023-07-12)

Processing feed: 이글루스 '영화' 테마 인기글
  Feed URL: http://valley.egloos.com/theme/rss/top/movie
  Result: 0 posts/year (Status: ERROR, Last: None)

Processing feed: Instructables: popular
  Feed URL: http://feeds.feedburner.com/instructables/popular
  Result: 0 posts/year (Status: OLD, Last: 2019-10-31)

Processing feed: Instructables: featured
  Feed URL: http://feeds.feedburner.com/instructables/featured
  Result: 0 posts/year (Status: OLD, Last: 2019-11-05)

Processing feed: Alden's Dev Log
  Feed URL: https://alden-kang.tistory.com/rss
  Result: 0 posts/year (Status: OLD, Last: 2023-02-19)

Processing feed: 이글루스 '여행' 테마 인기글
  Feed URL: http://valley.egloos.com/theme/rss/top/travel
  Result: 0 posts/year (Status: ERROR, Last: None)

Processing feed: 책습관
  Feed URL: https://brunch.co.kr/rss/@@hTC
  Result: 0 posts/year (Status: OLD, Last: 2018-11-23)

Processing feed: Pikuma
  Feed URL: https://pikuma.com/feed
  Result: 0 posts/year (Status: OLD, Last: 2024-08-08)

Processing feed: Michael Feathers
  Feed URL: https://michaelfeathers.silvrback.com/feed
  Result: 0 posts/year (Status: OLD, Last: 2023-07-11)

Processing feed: Nightaholic
  Feed URL: http://cyhome.cyworld.com/a1425316/rss2
  Result: 0 posts/year (Status: ERROR, Last: None)

Processing feed: 기즈모 블로그(디지털 오르가슴 연구소)
  Feed URL: http://blog.rss.naver.com/gizmoblog.xml
  Result: 0 posts/year (Status: OLD, Last: 2022-03-02)

Processing feed: Market Information : KBDMania
  Feed URL: http://www.kbdmania.net/xe/?mid=market_info&act=rss
  Result: 0 posts/year (Status: OLD, Last: 2024-06-13)

Processing feed: Stories by 조은, Eun Cho on Medium
  Feed URL: https://medium.com/feed/@euncho/
  Result: 0 posts/year (Status: ERROR, Last: None)

Processing feed: Kalzumeus Software
  Feed URL: http://www.kalzumeus.com/feed/
  Result: 1 posts/year (Status: OK, Last: 2025-02-10)

Processing feed: Rene & Rousseau
  Feed URL: http://skysummer.com/rss
  Result: 0 posts/year (Status: ERROR, Last: None)

Processing feed: ZNINLDN
  Feed URL: http://zninldn.wordpress.com/feed/
  Result: 0 posts/year (Status: OLD, Last: 2018-03-07)

Processing feed: eincs
  Feed URL: http://eincs.com/atom.xml
  Result: 0 posts/year (Status: OLD, Last: 2013-08-05)

Processing feed: To be happy...
  Feed URL: http://blog.moneta.co.kr/rss/blog/ky2kyung/-1
  Result: 0 posts/year (Status: OLD, Last: 2020-02-22)

Processing feed: 곰개구리
  Feed URL: http://kisskys.tistory.com/rss
  Result: 0 posts/year (Status: OLD, Last: 2012-11-06)

Processing feed: mango.pdf.zone
  Feed URL: https://mango.pdf.zone/feed.xml
  Result: 0 posts/year (Status: OLD, Last: 2022-01-12)

Processing feed: 산으로
  Feed URL: http://blog.rss.naver.com/kl35250kl.xml
  Result: 0 posts/year (Status: OLD, Last: 2019-04-27)

Processing feed: Caffeinspiration
  Feed URL: https://alexanderell.is/index.xml
  Result: 6 posts/year (Status: OK, Last: 2025-11-16)

Processing feed: Paul Cavallaro's Blog on Paul Cavallaro
  Feed URL: https://paulcavallaro.com/blog/index.xml
  Result: 1 posts/year (Status: OK, Last: 2025-07-25)

Processing feed: au VimEnter
  Feed URL: https://au-vimenter.github.io/feed.xml
  Result: 0 posts/year (Status: OLD, Last: 2024-11-08)

Processing feed: 올빼미 화원
  Feed URL: http://blog.rss.naver.com/manwha21
  Result: 0 posts/year (Status: EMPTY, Last: None)

Processing feed: CSS Wizardry
  Feed URL: http://feeds.feedburner.com/csswizardry
  Result: 8 posts/year (Status: OK, Last: 2025-08-18)

Processing feed: The Diff
  Feed URL: https://diff.substack.com/feed/
  Result: 0 posts/year (Status: ERROR, Last: None)

Processing feed: KAIST, NSLab 일상 생활
  Feed URL: http://nslab.tistory.com/rss
  Result: 0 posts/year (Status: ERROR, Last: None)

Processing feed: AlastairC
  Feed URL: https://alastairc.uk/feed/
  Result: 2 posts/year (Status: OK, Last: 2025-11-27)

Processing feed: KLDP - 토론, 토의
  Feed URL: http://kldp.org/taxonomy/term/32/0/feed
  Result: 0 posts/year (Status: OLD, Last: 2023-12-06)

Processing feed: Geeking with Greg
  Feed URL: http://feeds.feedburner.com/GeekingWithGreg
  Result: 0 posts/year (Status: OLD, Last: 2024-01-12)

Processing feed: Kishore Ganesh
  Feed URL: https://kishoreganesh.com/index.xml
  Result: 0 posts/year (Status: OLD, Last: 2024-01-10)

Processing feed: 빈꿈 EMPTYDREAM
  Feed URL: http://emptydream.tistory.com/rss
  Result: 0 posts/year (Status: OLD, Last: 2023-06-29)

Processing feed: C with Crosses
  Feed URL: https://victor-istomin.github.io/c-with-crosses/feed.xml
  Result: 0 posts/year (Status: OLD, Last: 2023-07-13)

Processing feed: Dhananjay Kumar
  Feed URL: http://debugmode.net/feed/
  Result: 376 posts/year (Status: OK, Last: 2025-11-08)

Processing feed: 대한민국역사박물관
  Feed URL: https://brunch.co.kr/rss/@@c8wm
  Result: 0 posts/year (Status: OLD, Last: 2022-08-31)

Processing feed: OECD.org - United Kingdom
  Feed URL: http://www.oecd.org/RSS_channel/0,3045,en_33873108_33873870_1_1_1_1_1,00.xml
  Result: 0 posts/year (Status: ERROR, Last: None)

Processing feed: 이글루스 '뉴스비평' 테마 인기글
  Feed URL: http://valley.egloos.com/theme/rss/top/news
  Result: 0 posts/year (Status: ERROR, Last: None)

Processing feed: 이글루스 'IT' 테마 인기글
  Feed URL: http://valley.egloos.com/theme/rss/top/technology
  Result: 0 posts/year (Status: ERROR, Last: None)

Processing feed: GYUHANG.NET
  Feed URL: http://gyuhang.net/rss
  Result: 0 posts/year (Status: ERROR, Last: None)

Processing feed: Scientific American
  Feed URL: http://rss.sciam.com/sciam/biology
  Result: 0 posts/year (Status: OLD, Last: 2024-03-01)

Processing feed: 박규영_자연의 비경
  Feed URL: http://blog.rss.naver.com/photoky.xml
  Result: 0 posts/year (Status: OLD, Last: 2023-07-14)

Processing feed: dream catcher
  Feed URL: http://blog.rss.naver.com/sunset0902.xml
  Result: 47 posts/year (Status: OK, Last: 2025-11-20)

Processing feed: A guide to mainlining android phones
  Feed URL: https://mainlining.dev/feed/
  Result: 0 posts/year (Status: OLD, Last: 2022-08-06)

Processing feed: KLDP blogs
  Feed URL: http://kldp.org/blog/feed
  Result: 0 posts/year (Status: OLD, Last: 2022-10-12)

Processing feed: Ed Yong | The Atlantic
  Feed URL: http://www.theatlantic.com/feed/author/ed-yong/
  Result: 0 posts/year (Status: OLD, Last: 2023-07-27)

Processing feed: 에스티마의 인터넷이야기
  Feed URL: http://estima.wordpress.com/feed/
  Result: 0 posts/year (Status: OLD, Last: 2021-08-15)

Processing feed: Adactio: Articles
  Feed URL: http://adactio.com/articles/rss
  Result: 51 posts/year (Status: OK, Last: 2025-04-27)

Processing feed: 감칠맛 나는 글을 쓰고 싶은 공돌이!!!! ㅠ.ㅠ - Kwangswei's life
  Feed URL: http://kwangswei.tistory.com/rss
  Result: 0 posts/year (Status: EMPTY, Last: None)

Processing feed: Essays-Long-Reads - Bicycling
  Feed URL: https://www.bicycling.com/rss/essays-long-reads.xml
  Result: 0 posts/year (Status: EMPTY, Last: None)

Processing feed: mattorb
  Feed URL: https://mattorb.com/rss/
  Result: 25 posts/year (Status: OK, Last: 2025-03-14)

Processing feed: 내 안의 女神을 깨워라
  Feed URL: http://blog.rss.naver.com/wizaard.xml
  Result: 0 posts/year (Status: OLD, Last: 2021-12-15)

Processing feed: Gmail Blog
  Feed URL: http://feeds.feedburner.com/OfficialGmailBlog
  Result: 8 posts/year (Status: OK, Last: 2025-09-11)

Processing feed: 다시 맑음
  Feed URL: http://blog.rss.naver.com/manpack.xml
  Result: 0 posts/year (Status: OLD, Last: 2022-03-28)

Processing feed: 뉴스타파 NEWSTAPA
  Feed URL: http://download.newstapa.org/api/podcast.xml
  Result: 0 posts/year (Status: OLD, Last: 2022-11-07)

Processing feed: 뒤죽박죽 별장
  Feed URL: http://blog.daum.net/xml/rss/rockks77
  Result: 0 posts/year (Status: ERROR, Last: None)

Processing feed: atthis.link
  Feed URL: https://atthis.link/rss.xml
  Result: 1 posts/year (Status: OK, Last: 2025-02-20)

Processing feed: Blogs from the Natural History Museum
  Feed URL: https://naturalhistorymuseum.blog/feed/
  Result: 0 posts/year (Status: ERROR, Last: None)

Processing feed: Therocode's blog
  Feed URL: https://blog.therocode.net/feed.xml
  Result: 0 posts/year (Status: OLD, Last: 2020-10-07)

Processing feed: leah blogs
  Feed URL: http://chneukirchen.org/blog/index.atom
  Result: 8 posts/year (Status: OK, Last: 2025-12-24)

Processing feed: Small Steps Blog
  Feed URL: http://feeds.feedburner.com/jooyunghan
  Result: 0 posts/year (Status: OLD, Last: 2012-04-17)

Processing feed: Blog on Dan North &amp; Associates Limited
  Feed URL: https://dannorth.net/blog/index.xml
  Result: 1 posts/year (Status: OK, Last: 2025-02-03)

Processing feed: SpeakOfTheDevrel.Cloud: Doug Sillars
  Feed URL: https://dougsillars.com/feed/
  Result: 1 posts/year (Status: OK, Last: 2025-04-15)

Processing feed: 서성록의 미술이야기
  Feed URL: http://blog.rss.naver.com/seongrok123.xml
  Result: 25 posts/year (Status: OK, Last: 2025-11-11)

Processing feed: Sam Zeloof
  Feed URL: http://sam.zeloof.xyz/feed/
  Result: 0 posts/year (Status: OLD, Last: 2023-03-18)

Processing feed: Gwern.net Newsletter
  Feed URL: https://gwern.substack.com/feed
  Result: 0 posts/year (Status: OLD, Last: 2021-06-11)

Processing feed: Paged Out! Magazine
  Feed URL: https://pagedout.institute/rss.xml
  Result: 1 posts/year (Status: OK, Last: 2025-10-04)

Processing feed: 찐꽝의 映像時代
  Feed URL: http://blog.rss.naver.com/sabyuk1.xml
  Result: 0 posts/year (Status: OLD, Last: 2024-09-10)

Processing feed: Sonar & Radar » Feed
  Feed URL: http://www.demitrio.com/?feed=rss2
  Result: 0 posts/year (Status: ERROR, Last: None)

Processing feed: 이글루스 '게임' 테마 인기글
  Feed URL: http://valley.egloos.com/theme/rss/top/game
  Result: 0 posts/year (Status: ERROR, Last: None)

Processing feed: IT 기획 연구소
  Feed URL: http://cfs.tistory.com/custom/named/cy/cyslab/rss.xml
  Result: 0 posts/year (Status: ERROR, Last: None)

Processing feed: Articles — brandur.org
  Feed URL: http://brandur.org/articles.atom
  Result: 0 posts/year (Status: OLD, Last: 2024-05-28)

Processing feed: Insuk's memolog at Yellow Submarine
  Feed URL: http://feed43.com/0880813416673318.xml
  Result: 0 posts/year (Status: ERROR, Last: None)

Processing feed: drublic – Software Architecture - Hans Christian Reinl, Cologne
  Feed URL: https://drublic.de/feed.xml
  Result: 2 posts/year (Status: OK, Last: 2025-12-07)

Processing feed: National Geographic Photo of the Day
  Feed URL: http://www.nationalgeographic.com/rss/photography/photo-of-the-day
  Result: 0 posts/year (Status: ERROR, Last: None)

Processing feed: 이그잼플
  Feed URL: https://junegunn.kr/feed/
  Result: 0 posts/year (Status: ERROR, Last: None)

Processing feed: (구)아이포니앙
  Feed URL: https://rss.diffbot.com/rss?url=https://damoang.net/iphone
  Result: 0 posts/year (Status: OLD, Last: 2024-04-15)

Processing feed: 피렌체의 식탁
  Feed URL: https://firenzedt.com/feed
  Result: 0 posts/year (Status: ERROR, Last: None)

Processing feed: Oxford English Dictionary
  Feed URL: http://www.oed.com/rss.xml
  Result: 0 posts/year (Status: ERROR, Last: None)

Processing feed: DBMS Musings
  Feed URL: http://dbmsmusings.blogspot.com/feeds/posts/default
  Result: 0 posts/year (Status: OLD, Last: 2021-03-25)

Processing feed: 이글루스 '만화' 테마 인기글
  Feed URL: http://valley.egloos.com/theme/rss/top/comic
  Result: 0 posts/year (Status: ERROR, Last: None)

Processing feed: 최규성의 대중문화산책
  Feed URL: http://blog.rss.naver.com/oopldh.xml
  Result: 1 posts/year (Status: OK, Last: 2025-12-02)

Processing feed: a spark in your veins
  Feed URL: https://e-shootershill.co.uk/feed/
  Result: 0 posts/year (Status: OLD, Last: 2020-10-20)

Processing feed: capcold님의 블로그님
  Feed URL: http://capcold.net/blog/feed
  Result: 0 posts/year (Status: OLD, Last: 2021-08-26)

Processing feed: The Verge - Buying Guide Posts
  Feed URL: http://www.theverge.com/this-is-my-next/rss/index.xml
  Result: 0 posts/year (Status: ERROR, Last: None)

Processing feed: xmonad - the tiling window manager that rocks
  Feed URL: https://xmonad.org/feed.xml
  Result: 0 posts/year (Status: OLD, Last: 2024-08-20)

Processing feed: Evil Mad Scientist Laboratories
  Feed URL: http://www.evilmadscientist.com/backend/geeklog.rss
  Result: 1 posts/year (Status: OK, Last: 2025-10-14)

Processing feed: 부크의 아이템창고
  Feed URL: http://blog.rss.naver.com/spd33.xml
  Result: 0 posts/year (Status: OLD, Last: 2017-08-15)

Processing feed: fpunfold
  Feed URL: http://fpunfold.com/feed.xml
  Result: 0 posts/year (Status: ERROR, Last: None)

Processing feed: 안단테의 들꽃산책
  Feed URL: http://blog.rss.naver.com/dhlee05
  Result: 0 posts/year (Status: OLD, Last: 2023-04-11)

Processing feed: foobartel.com :: All Posts
  Feed URL: https://foobartel.com/feed
  Result: 0 posts/year (Status: OLD, Last: 2023-11-30)

Processing feed: Foresight Institute
  Feed URL: http://www.foresight.org/nanodot/wp-rss.php
  Result: 0 posts/year (Status: EMPTY, Last: None)

Processing feed: Applied Cartography
  Feed URL: https://www.applied-cartography.com/rss.xml
  Result: 0 posts/year (Status: ERROR, Last: None)

Processing feed: parsonsmatt.org
  Feed URL: https://www.parsonsmatt.org/feed.xml
  Result: 1 posts/year (Status: OK, Last: 2025-12-17)

Processing feed: 꽃이야기
  Feed URL: https://kill-the-newsletter.com/feeds/q81twzoano4wdptt.xml
  Result: 24 posts/year (Status: OK, Last: 2025-08-30)

Processing feed: 여행,느낌 그리고 사진
  Feed URL: http://blog.rss.naver.com/dghahn.xml
  Result: 0 posts/year (Status: OLD, Last: 2022-10-03)

Processing feed: endtimes.dev
  Feed URL: https://endtimes.dev/feed.xml
  Result: 0 posts/year (Status: OLD, Last: 2023-11-25)

Processing feed: [김삼웅의 인물열전] 반민특위 위원장 김상덕 평전
  Feed URL: http://blog.ohmynews.com/kimsamwoong/rss
  Result: 0 posts/year (Status: ERROR, Last: None)

Processing feed: Coding Horror
  Feed URL: http://feeds.feedburner.com/codinghorror/
  Result: 10 posts/year (Status: OK, Last: 2025-03-20)

Processing feed: kciter.so
  Feed URL: https://kciter.so/feed.xml
  Result: 47 posts/year (Status: OK, Last: 2025-05-06)

Processing feed: ★여행은 떠나는 자의 몫★
  Feed URL: http://blog.rss.naver.com/mis71.xml
  Result: 0 posts/year (Status: OLD, Last: 2021-07-19)

Processing feed: The Public Domain Review
  Feed URL: http://publicdomainreview.org/feed/
  Result: 101 posts/year (Status: OK, Last: 2026-01-01)

Processing feed: Consumer champions | The Guardian
  Feed URL: http://www.guardian.co.uk/money/series/bachelor-and-brignall-consumer-champions/rss
  Result: 93 posts/year (Status: OK, Last: 2025-12-27)

Processing feed: 초록섬
  Feed URL: http://blog.rss.naver.com/77attic.xml
  Result: 123 posts/year (Status: OK, Last: 2026-01-02)

Processing feed: The Atlantic Photo
  Feed URL: http://feeds.feedburner.com/theatlantic/infocus
  Result: 136 posts/year (Status: OK, Last: 2025-04-30)

Processing feed: 토토로의 여행공작소
  Feed URL: http://blog.rss.naver.com/babtol2000.xml
  Result: 29 posts/year (Status: OK, Last: 2025-12-20)

Processing feed: TEDxSeoul - 번역 개선하기
  Feed URL: http://www.tedxseoul.com/xe/talks/atom
  Result: 0 posts/year (Status: ERROR, Last: None)

Processing feed: Humans of New York
  Feed URL: http://www.humansofnewyork.com/rss
  Result: 0 posts/year (Status: ERROR, Last: None)

Processing feed: MakeUseOf.com » Mac
  Feed URL: http://www.makeuseof.com/service/mac/feed/
  Result: 15 posts/year (Status: OK, Last: 2026-01-02)

Processing feed: 토마스모어의영화방
  Feed URL: http://blog.rss.naver.com/cine212722.xml
  Result: 110 posts/year (Status: OK, Last: 2026-01-03)

Processing feed: TV Tropes - Most Popular Articles
  Feed URL: https://tvtropes.org/pmwiki/rss-feed.php?filter=most_popular
  Result: 8 posts/year (Status: OK, Last: 2026-01-01)

Processing feed: lines and colors :: a blog about drawing, painting, illustration, comics, concept art and other visual arts
  Feed URL: http://www.linesandcolors.com/feed/
  Result: 198 posts/year (Status: OK, Last: 2026-01-01)

Processing feed: The Marginalian
  Feed URL: https://www.brainpickings.org/feed/
  Result: 185 posts/year (Status: OK, Last: 2026-01-02)

Processing feed: Byte Cellar
  Feed URL: http://www.bytecellar.com/feed/
  Result: 0 posts/year (Status: OLD, Last: 2024-12-22)

Processing feed: Krebs on Security
  Feed URL: http://krebsonsecurity.com/feed/
  Result: 76 posts/year (Status: OK, Last: 2026-01-02)

Processing feed: OnLondon
  Feed URL: https://onlondon.co.uk/feed/
  Result: 248 posts/year (Status: OK, Last: 2026-01-02)

Processing feed: TED Blog
  Feed URL: http://feeds.feedburner.com/tedblog
  Result: 38 posts/year (Status: OK, Last: 2025-12-12)

Processing feed: raganwald.com
  Feed URL: https://raganwald.com/atom.xml
  Result: 0 posts/year (Status: OLD, Last: 2023-04-27)

Processing feed: 살려면 돌아다녀야 한다 돌아다니는 것만이 살 길이다
  Feed URL: http://blog.rss.naver.com/dondogi.xml
  Result: 198 posts/year (Status: OK, Last: 2026-01-02)

Processing feed: 킬크로그 (killklog)
  Feed URL: http://cusee.net/rss
  Result: 53 posts/year (Status: OK, Last: 2025-04-07)

Processing feed: Thoughtworks Insights
  Feed URL: http://www.thoughtworks.com/rss/insights.xml
  Result: 142 posts/year (Status: OK, Last: 2025-12-18)

Processing feed: Improbable Research
  Feed URL: http://improbable.com/feed/
  Result: 156 posts/year (Status: OK, Last: 2025-12-30)

Processing feed: BIG by Matt Stoller
  Feed URL: https://mattstoller.substack.com/feed/
  Result: 118 posts/year (Status: OK, Last: 2025-12-31)

Processing feed: Stepcase Lifehack
  Feed URL: http://www.lifehack.org/feed
  Result: 23 posts/year (Status: OK, Last: 2025-11-26)

Processing feed: Opinion – Communications of the ACM
  Feed URL: http://cacm.acm.org/opinion.rss
  Result: 0 posts/year (Status: ERROR, Last: None)

Processing feed: Chris Coyier
  Feed URL: http://feeds2.feedburner.com/ChrisCoyier
  Result: 56 posts/year (Status: OK, Last: 2026-01-03)

Processing feed: Overcoming Bias
  Feed URL: http://www.overcomingbias.com/feed
  Result: 157 posts/year (Status: OK, Last: 2025-12-30)

Processing feed: CSS { In Real Life }
  Feed URL: https://css-irl.info/rss.xml
  Result: 8 posts/year (Status: OK, Last: 2025-09-28)

Processing feed: Dr Scott Hollier – Digital Access Specialist
  Feed URL: http://hollier.info/feed/
  Result: 0 posts/year (Status: ERROR, Last: None)

Processing feed: Google Research Blog
  Feed URL: http://googleresearch.blogspot.com/atom.xml
  Result: 0 posts/year (Status: OLD, Last: 2024-03-29)

Processing feed: London SE1
  Feed URL: http://www.london-se1.co.uk/news/rss
  Result: 80 posts/year (Status: OK, Last: 2025-01-31)

Processing feed: Standard Ebooks - Newest Ebooks
  Feed URL: https://standardebooks.org/feeds/atom/new-releases
  Result: 17824695 posts/year (Status: OK, Last: 2026-01-01)

Processing feed: Business | The Guardian
  Feed URL: http://www.guardian.co.uk/business/rss
  Result: 3442 posts/year (Status: OK, Last: 2026-01-03)

Processing feed: 자작나무통신
  Feed URL: http://www.betulo.co.kr/rss
  Result: 55 posts/year (Status: OK, Last: 2026-01-02)

Processing feed: Inuit Blogged
  Feed URL: http://inuit.co.kr/rss
  Result: 21 posts/year (Status: OK, Last: 2025-12-27)

Processing feed: Cycling UK Forum
  Feed URL: https://forum.cyclinguk.org/app.php/feed/topics?sid=741a57a35bb2ba7efc6307b71d2d3f27
  Result: 2371 posts/year (Status: OK, Last: 2026-01-03)

Processing feed: House of Commons Library
  Feed URL: https://commonslibrary.parliament.uk/feed/
  Result: 454 posts/year (Status: OK, Last: 2025-12-29)

Processing feed: Secret London
  Feed URL: http://secretldn.com/feed/
  Result: 8 posts/year (Status: OK, Last: 2026-01-02)

Processing feed: Technology | The Guardian
  Feed URL: http://www.theguardian.com/technology/rss
  Result: 96 posts/year (Status: OK, Last: 2026-01-03)

Processing feed: Lobsters: Top Stories of the Past Week
  Feed URL: https://lobste.rs/top/rss
  Result: 1527 posts/year (Status: OK, Last: 2026-01-02)

Processing feed: Music | The Guardian
  Feed URL: http://feeds.guardian.co.uk/theguardian/music/rss
  Result: 263 posts/year (Status: OK, Last: 2026-01-03)

Processing feed: Money | The Guardian
  Feed URL: http://feeds.guardian.co.uk/theguardian/money/rss
  Result: 255 posts/year (Status: OK, Last: 2026-01-03)

Processing feed: Which? News
  Feed URL: http://www.which.co.uk/feeds/news.xml
  Result: 1783 posts/year (Status: OK, Last: 2025-12-01)

Processing feed: Techdirt
  Feed URL: http://www.techdirt.com/techdirt_rss.xml
  Result: 1232 posts/year (Status: OK, Last: 2026-01-02)

Processing feed: 포커스 취재 > 구정은의 세계, 이곳
  Feed URL: https://rss.diffbot.com/rss?url=https://hankookilbo.com/Collect/7885
  Result: 0 posts/year (Status: ERROR, Last: None)

Processing feed: Spitalfields Life
  Feed URL: http://spitalfieldslife.com/feed/
  Result: 364 posts/year (Status: OK, Last: 2026-01-03)

Processing feed: null program
  Feed URL: http://nullprogram.com/feed/
  Result: 17 posts/year (Status: OK, Last: 2026-01-01)

Processing feed: 책과 생각 뉴스
  Feed URL: https://rss.diffbot.com/rss?url=https://www.hani.co.kr/arti/culture/book
  Result: 1813 posts/year (Status: OK, Last: 2026-01-03)

Processing feed: Kagi News - Business
  Feed URL: https://kite.kagi.com/business.xml
  Result: 5780 posts/year (Status: OK, Last: 2026-01-02)

Processing feed: Riot Games Tech Blog News Feed
  Feed URL: http://engineering.riotgames.com/rss.xml
  Result: 0 posts/year (Status: OLD, Last: 2024-02-27)

Processing feed: HN Readings
  Feed URL: https://kill-the-newsletter.com/feeds/s3j3tkrd68lwidt4410k.xml
  Result: 0 posts/year (Status: EMPTY, Last: None)

Processing feed: Eli Bendersky's website
  Feed URL: http://eli.thegreenplace.net/feed/
  Result: 21 posts/year (Status: OK, Last: 2026-01-01)

Processing feed: Knowable Magazine
  Feed URL: https://www.knowablemagazine.org/rss
  Result: 0 posts/year (Status: OLD, Last: None)

Processing feed: Tweag - Nix blog
  Feed URL: https://www.tweag.io/rss-nix.xml
  Result: 0 posts/year (Status: OLD, Last: 2024-09-05)

Processing feed: Random ASCII – tech blog of Bruce Dawson
  Feed URL: http://randomascii.wordpress.com/feed/
  Result: 7 posts/year (Status: OK, Last: 2025-11-11)

Processing feed: ClickHouse Blog
  Feed URL: https://clickhouse.com/rss.xml
  Result: 258 posts/year (Status: OK, Last: 2026-01-01)

Processing feed: nature, conservation and wildlife watching
  Feed URL: https://rss.diffbot.com/rss?url=https://www.discoverwildlife.com/
  Result: 0 posts/year (Status: OLD, Last: None)

Processing feed: lcamtuf’s thing
  Feed URL: https://lcamtuf.substack.com/feed
  Result: 31 posts/year (Status: OK, Last: 2025-12-26)

Processing feed: Natalie the Nerd's blog
  Feed URL: https://blog.nataliethenerd.com/rss/
  Result: 35 posts/year (Status: OK, Last: 2025-12-17)

Processing feed: Kagi News - World
  Feed URL: https://kite.kagi.com/world.xml
  Result: 6268 posts/year (Status: OK, Last: 2026-01-03)

Processing feed: MakeUseOf.com » Linux
  Feed URL: http://www.makeuseof.com/service/linux/feed/
  Result: 176 posts/year (Status: OK, Last: 2026-01-03)

Processing feed: microkerneldude
  Feed URL: http://microkerneldude.wordpress.com/feed/
  Result: 1 posts/year (Status: OK, Last: 2025-04-27)

Processing feed: Science News Explores
  Feed URL: https://www.snexplores.org/feed
  Result: 188 posts/year (Status: OK, Last: 2026-01-02)

Processing feed: Infrequently Noted
  Feed URL: http://alex.dojotoolkit.org/?feed=atom
  Result: 0 posts/year (Status: ERROR, Last: None)

Processing feed: Tech Blog
  Feed URL: http://tech.marksblogg.com/feeds/all.atom.xml
  Result: 31 posts/year (Status: OK, Last: 2025-12-08)

Processing feed: CONNECTING HEARTS! 커뮤니티 포털 디시인사이드입니다.
  Feed URL: https://rss.diffbot.com/rss?url=https://m.dcinside.com/
  Result: 0 posts/year (Status: ERROR, Last: None)

Processing feed: Project Zero
  Feed URL: https://projectzero.google/feed.xml
  Result: 15 posts/year (Status: OK, Last: 2025-12-16)

Processing feed: Blog on Tailscale
  Feed URL: https://tailscale.com/blog/index.xml
  Result: 100 posts/year (Status: OK, Last: 2025-12-19)

Processing feed: Spotify Engineering
  Feed URL: http://labs.spotify.com/feed/
  Result: 18 posts/year (Status: OK, Last: 2025-12-09)

Processing feed: MongoDB | Blog
  Feed URL: https://www.mongodb.com/blog/rss
  Result: 86 posts/year (Status: OK, Last: 2025-12-22)

Processing feed: NOEMA
  Feed URL: https://www.noemamag.com/feed/
  Result: 122 posts/year (Status: OK, Last: 2025-12-18)

Processing feed: Armin Ronacher's Thoughts and Writings
  Feed URL: http://lucumr.pocoo.org/feed.atom
  Result: 49 posts/year (Status: OK, Last: 2025-12-23)

Processing feed: Ahmad Alfy
  Feed URL: https://alfy.blog/feed.xml
  Result: 17 posts/year (Status: OK, Last: 2025-10-31)

Processing feed: TigerBeetle Blog
  Feed URL: https://tigerbeetle.com/blog/atom.xml
  Result: 12 posts/year (Status: OK, Last: 2025-11-28)

Processing feed: Climate Drift
  Feed URL: https://climatedrift.substack.com/feed
  Result: 57 posts/year (Status: OK, Last: 2026-01-01)

Processing feed: Guillaume Gomez's RSS (blog posts about IT and Rust)
  Feed URL: https://blog.guillaume-gomez.fr/rss
  Result: 5 posts/year (Status: OK, Last: 2025-12-15)

Processing feed: DoorDash
  Feed URL: https://careersatdoordash.com/feed/
  Result: 0 posts/year (Status: ERROR, Last: None)

Processing feed: 피렌체의 식탁
  Feed URL: https://kill-the-newsletter.com/feeds/aip8onivzyqw2fqv.xml
  Result: 235 posts/year (Status: OK, Last: 2026-01-01)

Processing feed: blog.allegro.tech
  Feed URL: https://blog.allegro.tech/feed.xml
  Result: 21 posts/year (Status: OK, Last: 2025-12-21)

Processing feed: bitonic's blog.
  Feed URL: https://mazzo.li/rss.xml
  Result: 8 posts/year (Status: OK, Last: 2025-10-17)

Processing feed: erock's devlog
  Feed URL: https://bower.sh/rss
  Result: 8 posts/year (Status: OK, Last: 2025-12-02)

Processing feed: Kagi News - Gaming
  Feed URL: https://kite.kagi.com/gaming.xml
  Result: 4477 posts/year (Status: OK, Last: 2026-01-03)

Processing feed: Outreach Newsletter
  Feed URL: https://kill-the-newsletter.com/feeds/6q3nssjk6sjzqn3jq19p.xml
  Result: 21 posts/year (Status: OK, Last: 2025-12-15)

Processing feed: Tweag - Engineering blog
  Feed URL: https://www.tweag.io/rss.xml
  Result: 31 posts/year (Status: OK, Last: 2025-12-18)

Processing feed: Stripe Blog
  Feed URL: https://stripe.com/blog/feed.rss
  Result: 44 posts/year (Status: OK, Last: 2025-12-18)

Processing feed: tracks and traces
  Feed URL: https://exclav.es/index.xml
  Result: 10 posts/year (Status: OK, Last: 2025-12-22)

Processing feed: 그림만화 BEST
  Feed URL: https://rss.diffbot.com/rss?url=https://m.ruliweb.com/best/cartoon
  Result: 0 posts/year (Status: ERROR, Last: None)

Processing feed: Data Engineering Blog
  Feed URL: https://sspaeti.com/index.xml
  Result: 44 posts/year (Status: OK, Last: 2025-12-30)

Processing feed: Engineering | Uber Blog
  Feed URL: https://www.uber.com/blog/engineering/rss/
  Result: 0 posts/year (Status: ERROR, Last: None)

Processing feed: cbloom rants
  Feed URL: http://cbloomrants.blogspot.com/feeds/posts/default
  Result: 0 posts/year (Status: OLD, Last: 2023-10-13)

Processing feed: 강갑생의 바퀴와 날개
  Feed URL: https://rss.diffbot.com/rss?url=https://www.joongang.co.kr/series/11059
  Result: 0 posts/year (Status: ERROR, Last: None)

Processing feed: 개발한당
  Feed URL: https://rss.diffbot.com/rss?url=https://damoang.net/development
  Result: 0 posts/year (Status: ERROR, Last: None)

Processing feed: Kagi News - Science
  Feed URL: https://kite.kagi.com/science.xml
  Result: 8349 posts/year (Status: OK, Last: 2026-01-03)

Processing feed: ErgoMechBoards
  Feed URL: https://rss.diffbot.com/rss?url=https://www.reddit.com/r/ErgoMechKeyboards/
  Result: 0 posts/year (Status: ERROR, Last: None)

Processing feed: Colin Marshall
  Feed URL: http://blog.colinmarshall.org/?feed=rss2
  Result: 17 posts/year (Status: OK, Last: 2026-01-01)

Processing feed: Fun With Functions
  Feed URL: https://funwithfunctions.com/rss.xml
  Result: 1 posts/year (Status: OK, Last: 2025-09-30)

Processing feed: Friendly Bit - Web development blog
  Feed URL: https://friendlybit.com/feed/
  Result: 29 posts/year (Status: OK, Last: 2025-12-28)

Processing feed: Kagi News - Technology
  Feed URL: https://kite.kagi.com/tech.xml
  Result: 7375 posts/year (Status: OK, Last: 2026-01-02)

Processing feed: Sylvain Kerkour
  Feed URL: https://opensourceweekly.org/index.xml
  Result: 0 posts/year (Status: ERROR, Last: None)

Processing feed: The Cloudflare Blog
  Feed URL: http://blog.cloudflare.com/rss.xml
  Result: 0 posts/year (Status: ERROR, Last: None)

Processing feed: Agentultra
  Feed URL: https://agentultra.com/feed.xml
  Result: 13 posts/year (Status: OK, Last: 2025-11-24)

Processing feed: BLOG@CACM – Communications of the ACM
  Feed URL: http://cacm.acm.org/blogs/blog-cacm.rss
  Result: 0 posts/year (Status: ERROR, Last: None)

Processing feed: ACM Queue Feature Articles
  Feed URL: http://acmqueue.com/queue.xml
  Result: 0 posts/year (Status: ERROR, Last: None)

Processing feed: Global Voices in English » Feature
  Feed URL: http://globalvoicesonline.org/-/type/feature/feed/
  Result: 430 posts/year (Status: OK, Last: 2026-01-01)

Processing feed: bicortex
  Feed URL: https://bicortex.com/bicortex/feed/
  Result: 0 posts/year (Status: OLD, Last: 2024-12-28)

Processing feed: Freethink
  Feed URL: https://www.freethink.com/feed/all
  Result: 47 posts/year (Status: OK, Last: 2025-12-09)

Processing feed: themindcircle
  Feed URL: http://onemorepost.com/feed/
  Result: 0 posts/year (Status: ERROR, Last: None)

Processing feed: qouteall notes Blog
  Feed URL: https://qouteall.fun/qouteall-blog/rss.xml
  Result: 10 posts/year (Status: OK, Last: 2025-12-20)

Processing feed: Wirecutter: Reviews for the Real World
  Feed URL: http://feeds.feedburner.com/TheWirecutter
  Result: 0 posts/year (Status: ERROR, Last: None)

Processing feed: Lambda the Ultimate - Programming Languages Weblog
  Feed URL: http://lambda-the-ultimate.org/rss.xml
  Result: 0 posts/year (Status: ERROR, Last: None)

Processing feed: The Code Project Latest Articles
  Feed URL: http://www.codeproject.com/webservices/articlerss.aspx?cat=1
  Result: 0 posts/year (Status: ERROR, Last: None)

Processing feed: Lemmy - technology
  Feed URL: https://lemmy.ml/feeds/c/technology.xml?sort=Hot
  Result: 857 posts/year (Status: OK, Last: 2026-01-03)

Processing feed: 전체기사 : 미래&과학 : 뉴스 : 한겨레 뉴스 - 인터넷한겨레
  Feed URL: http://www.hani.co.kr/rss/science/
  Result: 0 posts/year (Status: OLD, Last: None)

Processing feed: BBC News
  Feed URL: http://newsrss.bbc.co.uk/rss/newsonline_uk_edition/education/rss.xml
  Result: 66 posts/year (Status: OK, Last: 2026-01-02)

Processing feed: 오마이뉴스 - 여행
  Feed URL: http://rss.ohmynews.com/rss/travel.xml
  Result: 1697 posts/year (Status: OK, Last: 2026-01-03)

Processing feed: ProPublica
  Feed URL: http://feeds.propublica.org/propublica/main
  Result: 579 posts/year (Status: OK, Last: 2025-12-31)

Processing feed: Longreads
  Feed URL: http://longreads.com/rss
  Result: 298 posts/year (Status: OK, Last: 2026-01-02)

Processing feed: https://mobile.newsis.com/search.php?kwd=조수원+BOOK북적
  Feed URL: https://rss.diffbot.com/rss?url=https://mobile.newsis.com/search.php?kwd%3D%25EC%25A1%25B0%25EC%2588%2598%25EC%259B%2590%2BBOOK%25EB%25B6%2581%25EC%25A0%2581
  Result: 0 posts/year (Status: ERROR, Last: None)

Processing feed: GottaBeMobile.com » Editorials
  Feed URL: http://www.gottabemobile.com/category/editorials/feed
  Result: 0 posts/year (Status: OLD, Last: 2024-10-01)

Processing feed: 다초리의 숲속여행
  Feed URL: http://blog.rss.naver.com/dachori
  Result: 131 posts/year (Status: OK, Last: 2025-12-31)

Processing feed: NOVA | PBS
  Feed URL: http://www.pbs.org/wgbh/nova/rss/nova.xml
  Result: 6 posts/year (Status: OK, Last: 2025-11-13)

Processing feed: Omg! Ubuntu!
  Feed URL: http://feeds.feedburner.com/d0od
  Result: 363 posts/year (Status: OK, Last: 2026-01-02)

Processing feed: 들꽃편지
  Feed URL: http://blog.rss.naver.com/dhfodhfo00
  Result: 126 posts/year (Status: OK, Last: 2025-12-31)

Processing feed: 루리카의 PDA 활용기 (SPH-M4650 / M4655)
  Feed URL: http://ruryca.tistory.com/rss
  Result: 19 posts/year (Status: OK, Last: 2025-12-28)

Processing feed: Quotes of the Day
  Feed URL: http://www.quotationspage.com/data/qotd.rss
  Result: 365 posts/year (Status: OK, Last: 2026-01-03)

Processing feed: 미술관 속 비밀도서관
  Feed URL: http://blog.rss.naver.com/goldsunriver.xml
  Result: 44 posts/year (Status: OK, Last: 2025-07-18)

Processing feed: Ubergizmo
  Feed URL: http://www.ubergizmo.com/index.xml
  Result: 760 posts/year (Status: OK, Last: 2026-01-03)

Processing feed: NASA Image of the Day (Large)
  Feed URL: http://www.nasa.gov/rss/lg_image_of_the_day.rss
  Result: 158 posts/year (Status: OK, Last: 2026-01-02)

Processing feed: 미디어스 - 최근인기기사
  Feed URL: http://www.mediaus.co.kr/rss/clickTop.xml
  Result: 3514 posts/year (Status: OK, Last: 2026-01-03)

Processing feed: 자연과 꽃과 여행 ... ♥
  Feed URL: http://blog.rss.naver.com/cychang2
  Result: 152 posts/year (Status: OK, Last: 2026-01-03)

Processing feed: Baymard Institute
  Feed URL: http://feeds.baymard.com/baymard
  Result: 40 posts/year (Status: OK, Last: 2025-12-16)

Processing feed: Quanta Magazine
  Feed URL: http://www.quantamagazine.org/feed/
  Result: 210 posts/year (Status: OK, Last: 2025-12-22)

Processing feed: Features | The Guardian
  Feed URL: http://www.guardian.co.uk/tone/features/rss
  Result: 15567 posts/year (Status: OK, Last: 2026-01-03)

Processing feed: BBC News
  Feed URL: http://feeds.bbci.co.uk/news/world/rss.xml
  Result: 3593 posts/year (Status: OK, Last: 2026-01-03)

Processing feed: TechCrunch
  Feed URL: http://feeds.feedburner.com/Techcrunch
  Result: 1 posts/year (Status: OK, Last: 2025-12-04)

Processing feed: BBC News
  Feed URL: http://newsrss.bbc.co.uk/rss/newsonline_world_edition/front_page/rss.xml
  Result: 47 posts/year (Status: OK, Last: 2026-01-03)

Processing feed: The Independent
  Feed URL: http://www.independent.co.uk/rss
  Result: 1134 posts/year (Status: OK, Last: 2026-01-03)

Processing feed: Environment news, comment and analysis | guardian.co.uk
  Feed URL: http://feeds.guardian.co.uk/theguardian/environment/rss
  Result: 516 posts/year (Status: OK, Last: 2026-01-03)

Processing feed: freshnews.org - most clicked links
  Feed URL: http://feeds.feedburner.com/FreshnewsMostClicked
  Result: 6570 posts/year (Status: OK, Last: 2026-01-03)

Processing feed: The Independent UK
  Feed URL: http://www.independent.co.uk/news/uk/rss
  Result: 4497 posts/year (Status: OK, Last: 2026-01-03)

Processing feed: Vox
  Feed URL: http://www.vox.com/rss/index.xml
  Result: 1422 posts/year (Status: OK, Last: 2026-01-03)

Processing feed: Slashdot
  Feed URL: http://rss.slashdot.org/Slashdot/slashdot
  Result: 4762 posts/year (Status: OK, Last: 2026-01-03)

Processing feed: BBC News
  Feed URL: http://newsrss.bbc.co.uk/rss/newsonline_uk_edition/england/london/rss.xml
  Result: 711 posts/year (Status: OK, Last: 2026-01-03)

Processing feed: Ars Technica - All content
  Feed URL: http://feeds.arstechnica.com/arstechnica/index/
  Result: 2215 posts/year (Status: OK, Last: 2026-01-02)

Processing feed: ScienceDaily: Latest Science News
  Feed URL: http://www.sciencedaily.com/newsfeed.xml
  Result: 2434 posts/year (Status: OK, Last: 2026-01-03)

Processing feed: LessWrong
  Feed URL: http://lesswrong.com/.rss
  Result: 4110 posts/year (Status: OK, Last: 2026-01-03)

Processing feed: Hacker News
  Feed URL: http://news.ycombinator.com/rss
  Result: 1461 posts/year (Status: OK, Last: 2026-01-03)

Processing feed: TweakTown News RSS Feed
  Feed URL: http://feeds.feedburner.com/TweaktownNewsRss
  Result: 1679 posts/year (Status: OK, Last: 2026-01-02)

Processing feed: reddit: the front page of the internet
  Feed URL: http://programming.reddit.com/.rss
  Result: 20059 posts/year (Status: OK, Last: 2026-01-03)

Processing feed: Mashable!
  Feed URL: http://feeds2.feedburner.com/Mashable
  Result: 8078 posts/year (Status: OK, Last: 2026-01-03)

Processing feed: BBC News
  Feed URL: http://newsrss.bbc.co.uk/rss/newsonline_uk_edition/uk/rss.xml
  Result: 968 posts/year (Status: OK, Last: 2026-01-03)

Processing feed: News – Communications of the ACM
  Feed URL: http://cacm.acm.org/news.rss
  Result: 0 posts/year (Status: ERROR, Last: None)

Processing feed: BBC News
  Feed URL: http://news.bbc.co.uk/rss/newsonline_world_edition/entertainment/rss.xml
  Result: 1383 posts/year (Status: OK, Last: 2026-01-03)

Processing feed: Ancient Origins - Unravelling the Mysteries of the Past
  Feed URL: http://www.ancient-origins.net/rss.xml
  Result: 61 posts/year (Status: OK, Last: 2025-12-25)

Processing feed: National Review
  Feed URL: http://www.nationalreview.com/rss.xml
  Result: 1389 posts/year (Status: OK, Last: 2026-01-03)

Processing feed: Lifehacker
  Feed URL: http://lifehacker.com/vip.xml
  Result: 2389 posts/year (Status: OK, Last: 2026-01-02)

Processing feed: UK news | The Guardian
  Feed URL: http://feeds.theguardian.com/theguardian/uk-news/rss
  Result: 843 posts/year (Status: OK, Last: 2026-01-03)

Processing feed: The Verge
  Feed URL: http://www.theverge.com/rss/full.xml
  Result: 2646 posts/year (Status: OK, Last: 2026-01-03)

Processing feed: Informed Comment
  Feed URL: http://www.juancole.com/feed/atom
  Result: 1454 posts/year (Status: OK, Last: 2026-01-03)

Processing feed: GeekNews - 개발/기술/스타트업 뉴스 서비스
  Feed URL: https://news.hada.io/rss/news
  Result: 4974 posts/year (Status: OK, Last: 2026-01-03)

Processing feed: The Guardian
  Feed URL: https://www.theguardian.com/uk/rss
  Result: 1895 posts/year (Status: OK, Last: 2026-01-03)

Processing feed: 자유게시판
  Feed URL: https://rss.diffbot.com/rss?url=https://damoang.net/free
  Result: 0 posts/year (Status: ERROR, Last: None)

Processing feed: 클리앙 : 전기자전거당
  Feed URL: https://rss.diffbot.com/rss?url=https://www.clien.net/service/board/cm_ebicycle
  Result: 0 posts/year (Status: ERROR, Last: None)

Processing feed: Insights | Expert Software Development Articles & Resources
  Feed URL: https://rss.diffbot.com/rss?url=https://www.stackbuilders.com/blog/
  Result: 0 posts/year (Status: ERROR, Last: None)

Processing feed: 클리앙 : 클다방
  Feed URL: https://rss.diffbot.com/rss?url=https://www.clien.net/service/board/cm_coffee
  Result: 0 posts/year (Status: ERROR, Last: None)

Processing feed: 클리앙 : 유용한사이트
  Feed URL: https://rss.diffbot.com/rss?url=https://www.clien.net/service/board/useful
  Result: 0 posts/year (Status: ERROR, Last: None)

Processing feed: Het bijstere spoor
  Feed URL: https://evertpot.com/atom.xml
  Result: 1 posts/year (Status: OK, Last: 2025-04-13)

Processing feed: Chromium Blog
  Feed URL: http://blog.chromium.org/feeds/posts/default
  Result: 5 posts/year (Status: OK, Last: 2025-10-10)

Processing feed: Articles
  Feed URL: https://rss.diffbot.com/rss?url=https://jbee.io/articles
  Result: 0 posts/year (Status: ERROR, Last: None)

Processing feed: Better world by better software
  Feed URL: http://glebbahmutov.com/blog/atom.xml
  Result: 37 posts/year (Status: OK, Last: 2025-12-30)

Processing feed: Darice de Cuba
  Feed URL: http://www.darice.org/feed/
  Result: 17 posts/year (Status: OK, Last: 2025-11-20)

Processing feed: Baldur Bjarnason's Notes on the Web
  Feed URL: http://feedpress.me/baldurbjarnason
  Result: 56 posts/year (Status: OK, Last: 2025-12-31)

Processing feed: Writings on Martin Kaptein
  Feed URL: https://www.martinkaptein.com/blog/index.xml
  Result: 0 posts/year (Status: OLD, Last: 2024-09-16)

Processing feed: 경향신문:전체기사
  Feed URL: http://www.khan.co.kr/rss/rssdata/total_news.xml
  Result: 19192 posts/year (Status: OK, Last: 2026-01-03)

Processing feed: Digital blog | The Guardian
  Feed URL: http://www.guardian.co.uk/info/developer-blog/rss
  Result: 0 posts/year (Status: OLD, Last: 2024-09-23)

Processing feed: AddyOsmani.com
  Feed URL: http://addyosmani.com/rss.xml
  Result: 20 posts/year (Status: OK, Last: 2025-12-29)

Processing feed: CodePen
  Feed URL: http://blog.codepen.io/feed/
  Result: 65 posts/year (Status: OK, Last: 2025-12-15)

Processing feed: micahflee
  Feed URL: https://micahflee.com/feed.xml
  Result: 24 posts/year (Status: OK, Last: 2025-11-29)

Processing feed: Ben Frain
  Feed URL: http://benfrain.com/feed/
  Result: 8 posts/year (Status: OK, Last: 2025-12-06)

Processing feed: CodingItWrong.com
  Feed URL: http://codingitwrong.com/feed.xml
  Result: 0 posts/year (Status: OLD, Last: 2024-05-30)

Processing feed: A Few Thoughts on Cryptographic Engineering
  Feed URL: https://blog.cryptographyengineering.com/feed/
  Result: 12 posts/year (Status: OK, Last: 2025-09-10)

Processing feed: Aaron Gustafson: Latest Posts & Links
  Feed URL: http://aaron-gustafson.com/atom.xml
  Result: 0 posts/year (Status: ERROR, Last: None)

Processing feed: David Walsh Blog
  Feed URL: http://feeds.feedburner.com/Bludice
  Result: 3 posts/year (Status: OK, Last: 2025-11-20)

Processing feed: 클리앙 : 자료실
  Feed URL: https://rss.diffbot.com/rss?url=https://www.clien.net/service/board/pds
  Result: 0 posts/year (Status: ERROR, Last: None)

Processing feed: David Bushell
  Feed URL: http://dbushell.com/rss/
  Result: 54 posts/year (Status: OK, Last: 2025-12-18)

Processing feed: Firefox Nightly News
  Feed URL: https://blog.nightly.mozilla.org/feed/
  Result: 19 posts/year (Status: OK, Last: 2025-12-19)

Processing feed: 위스키당
  Feed URL: https://rss.diffbot.com/rss?url=https://damoang.net/whiskey
  Result: 0 posts/year (Status: ERROR, Last: None)

Processing feed: Adrian Roselli
  Feed URL: http://adrianroselli.com/feed
  Result: 23 posts/year (Status: OK, Last: 2025-12-29)

Processing feed: Boris Smus
  Feed URL: http://feeds.feedburner.com/smuscom
  Result: 18 posts/year (Status: OK, Last: 2025-12-18)

Processing feed: Brad Frost
  Feed URL: http://feeds.feedburner.com/brad-frosts-blog
  Result: 88 posts/year (Status: OK, Last: 2025-12-26)

Processing feed: hiddedevries.nl Blog
  Feed URL: https://hiddedevries.nl/rss/full/
  Result: 0 posts/year (Status: ERROR, Last: None)

Processing feed: Google Online Security Blog
  Feed URL: http://googleonlinesecurity.blogspot.com/atom.xml
  Result: 31 posts/year (Status: OK, Last: 2025-12-10)

Processing feed: Ahmad Shadeed
  Feed URL: http://ishadeed.com/feed.xml
  Result: 10 posts/year (Status: OK, Last: 2025-10-31)

Processing feed: Danny van Kooten
  Feed URL: https://dannyvankooten.com/feed.xml
  Result: 4 posts/year (Status: OK, Last: 2025-10-07)

Processing feed: Articles & Experiments by Roman Komarov on kizu.ru
  Feed URL: http://feeds.feedburner.com/kizuruen
  Result: 6 posts/year (Status: OK, Last: 2025-03-24)

Processing feed: bkardell.com rss feed
  Feed URL: https://bkardell.com/blog/feed.rss
  Result: 9 posts/year (Status: OK, Last: 2025-12-04)

Processing feed: daverupert.com
  Feed URL: http://daverupert.com/atom.xml
  Result: 55 posts/year (Status: OK, Last: 2026-01-02)

Processing feed: Eric Bailey
  Feed URL: https://ericwbailey.design/feed/feed.xml
  Result: 13 posts/year (Status: OK, Last: 2025-11-05)

Processing feed: Chen Hui Jing
  Feed URL: http://www.chenhuijing.com/feed.xml
  Result: 0 posts/year (Status: ERROR, Last: None)

Processing feed: Hacker News: Best Comments
  Feed URL: https://hnrss.org/bestcomments
  Result: 5450 posts/year (Status: OK, Last: 2026-01-03)

Processing feed: Culture | The Guardian
  Feed URL: http://feeds.guardian.co.uk/theguardian/culture/rss
  Result: 999 posts/year (Status: OK, Last: 2026-01-03)

Processing feed: Top Links | Hacker News
  Feed URL: http://feedpress.me/hacker-news-best
  Result: 0 posts/year (Status: ERROR, Last: None)

Processing feed: BlogGeek.me
  Feed URL: http://bloggeek.me/feed/
  Result: 26 posts/year (Status: OK, Last: 2025-12-22)

Processing feed: Ben Myers
  Feed URL: https://blog.benmyers.dev/feed.xml
  Result: 1 posts/year (Status: OK, Last: 2025-03-21)

Processing feed: The Endeavour
  Feed URL: http://feeds.feedburner.com/theendeavour
  Result: 309 posts/year (Status: OK, Last: 2026-01-01)

Processing feed: OECD.org - Home Page
  Feed URL: http://www.oecd.org/RSS_channel/0,3045,en_2649_201185_1_1_1_1_1,00.xml
  Result: 0 posts/year (Status: ERROR, Last: None)

Processing feed: Astronomy, Astrophotography & Space News
  Feed URL: https://rss.diffbot.com/rss?url=https://www.skyatnightmagazine.com/
  Result: 0 posts/year (Status: ERROR, Last: None)

Processing feed: 이충재의 인사이트
  Feed URL: https://kill-the-newsletter.com/feeds/zyvbiqfd0g0bbgb2.xml
  Result: 236 posts/year (Status: OK, Last: 2026-01-01)

Processing feed: 다바앙
  Feed URL: https://rss.diffbot.com/rss?url=https://damoang.net/coffee
  Result: 0 posts/year (Status: ERROR, Last: None)

Processing feed: LWN.net featured content
  Feed URL: http://lwn.net/headlines/Features
  Result: 443 posts/year (Status: OK, Last: 2025-12-26)

Processing feed: The Greenwich Wire
  Feed URL: http://853blog.wordpress.com/feed/
  Result: 99 posts/year (Status: OK, Last: 2025-12-31)

Processing feed: 권남
  Feed URL: http://kwonnam.pe.kr/wiki/feed.php
  Result: 20 posts/year (Status: OK, Last: 2026-01-02)

Processing feed: Digital Inspiration - Technology Blog
  Feed URL: http://feeds.labnol.org/labnol
  Result: 0 posts/year (Status: ERROR, Last: None)

Processing feed: 삶에 대처하는 나의 자세
  Feed URL: http://blog.rss.naver.com/likedream.xml
  Result: 96 posts/year (Status: OK, Last: 2026-01-03)

Processing feed: 클리앙 : 모두의공원
  Feed URL: https://rss.diffbot.com/rss?url=https://www.clien.net/service/board/park
  Result: 59130 posts/year (Status: OK, Last: 2026-01-03)

Processing feed: Cojette의 Data Wonderland
  Feed URL: https://cojette.github.io/feed.xml
  Result: 472 posts/year (Status: OK, Last: 2025-12-31)

Processing feed: Information Is Beautiful
  Feed URL: http://feeds.feedburner.com/InformationIsBeautiful
  Result: 31 posts/year (Status: OK, Last: 2025-07-04)

Processing feed: Reasons to be Cheerful
  Feed URL: https://reasonstobecheerful.world/feed/
  Result: 186 posts/year (Status: OK, Last: 2026-01-02)

Processing feed: 혁명은 언제나 시기상조
  Feed URL: http://weirdhat.net/blog/?feed=rss2
  Result: 77 posts/year (Status: OK, Last: 2026-01-03)

Processing feed: 사진이 걸린 방
  Feed URL: http://blog.rss.naver.com/lenz1839.xml
  Result: 5 posts/year (Status: OK, Last: 2025-09-16)

Processing feed: Netflix TechBlog
  Feed URL: https://netflixtechblog.com/feed
  Result: 0 posts/year (Status: ERROR, Last: None)

Processing feed: 이새별 블로그
  Feed URL: http://blog.rss.naver.com/joymodem
  Result: 18 posts/year (Status: OK, Last: 2025-12-11)

Processing feed: 흰구름 가는 곳
  Feed URL: http://blog.rss.naver.com/ealife
  Result: 42 posts/year (Status: OK, Last: 2025-11-18)

Processing feed: Joone.net
  Feed URL: http://joone.net/blog/?feed=rss2
  Result: 0 posts/year (Status: EMPTY, Last: None)

Processing feed: .
  Feed URL: http://blog.rss.naver.com/hedaran.xml
  Result: 4 posts/year (Status: OK, Last: 2025-12-05)

Processing feed: 여행과 사진에 미치다
  Feed URL: http://blog.rss.naver.com/sapawind.xml
  Result: 7 posts/year (Status: OK, Last: 2025-12-08)

Processing feed: techNeedle
  Feed URL: http://techneedle.com/?feed=rss2
  Result: 1 posts/year (Status: OK, Last: 2025-12-21)

Processing feed: 시간의 푸른 그늘
  Feed URL: http://blog.rss.naver.com/sylph58.xml
  Result: 16 posts/year (Status: OK, Last: 2025-12-13)

Processing feed: The Technium
  Feed URL: http://www.kk.org/thetechnium/index.xml
  Result: 32 posts/year (Status: OK, Last: 2025-11-14)

Processing feed: 언론사람
  Feed URL: https://kill-the-newsletter.com/feeds/uatpjsyz4v2yoci6.xml
  Result: 14 posts/year (Status: OK, Last: 2025-12-31)

Processing feed: Computer Science – Quanta Magazine
  Feed URL: https://www.quantamagazine.org/category/computer-science-2/feed/
  Result: 0 posts/year (Status: EMPTY, Last: None)

Processing feed: Linux Journal - The Original Magazine of the Linux Community
  Feed URL: http://www.linuxjournal.com/node/feed
  Result: 66 posts/year (Status: OK, Last: 2026-01-01)

Processing feed: Sutter’s Mill
  Feed URL: http://herbsutter.com/feed/
  Result: 15 posts/year (Status: OK, Last: 2025-12-31)

Processing feed: Paul Graham - Essays
  Feed URL: https://rsshub.app/paulgraham/articles
  Result: 0 posts/year (Status: ERROR, Last: None)

Processing feed: 길 위의 나날들(The Days on the Road)
  Feed URL: http://blog.rss.naver.com/travelmaker.xml
  Result: 35 posts/year (Status: OK, Last: 2025-11-22)

Processing feed: 차카게살자 우스며살자
  Feed URL: http://blog.rss.naver.com/zonmini.xml
  Result: 243 posts/year (Status: OK, Last: 2026-01-02)

Processing feed: geeknews
  Feed URL: https://kill-the-newsletter.com/feeds/la1dwxu6ovmqf6gn.xml
  Result: 0 posts/year (Status: ERROR, Last: None)

Processing feed: My mail collection
  Feed URL: https://kill-the-newsletter.com/feeds/j50w0hwaltovoqbe.xml
  Result: 129 posts/year (Status: OK, Last: 2026-01-02)

Processing feed: COFFEEPOT
  Feed URL: https://kill-the-newsletter.com/feeds/e02o1j2jnigea4e7.xml
  Result: 0 posts/year (Status: ERROR, Last: None)

Processing feed: 고등과학원 HORIZON
  Feed URL: http://horizon.kias.re.kr/feed/
  Result: 78 posts/year (Status: OK, Last: 2025-12-31)

Processing feed: fabiensanglard.net
  Feed URL: http://fabiensanglard.net/rss.xml
  Result: 5 posts/year (Status: OK, Last: 2025-12-03)

Processing feed: 추야가 끄적이는 이야기
  Feed URL: http://blog.rss.naver.com/chou0206.xml
  Result: 0 posts/year (Status: OLD, Last: 2024-05-19)

Processing feed: Otter Letter
  Feed URL: https://kill-the-newsletter.com/feeds/xb7mtpdo9lil6zpi.xml
  Result: 0 posts/year (Status: ERROR, Last: None)

Processing feed: SOVIDENCE
  Feed URL: http://sovidence.tistory.com/rss
  Result: 30 posts/year (Status: OK, Last: 2025-11-29)

Processing feed: august 의 軍史世界
  Feed URL: http://blog.rss.naver.com/xqon1.xml
  Result: 150 posts/year (Status: OK, Last: 2026-01-02)

Processing feed: Strategy business
  Feed URL: http://www.strategy-business.com/all_updates.xml
  Result: 25 posts/year (Status: OK, Last: 2025-12-15)

Processing feed: Hacker News Digest 20 weekly
  Feed URL: https://kill-the-newsletter.com/feeds/k45sgtkczw95ep66.xml
  Result: 52 posts/year (Status: OK, Last: 2025-12-27)

Processing feed: Explainers | Vox
  Feed URL: http://www.vox.com/rss/explainers/index.xml
  Result: 174 posts/year (Status: OK, Last: 2025-12-30)

Processing feed: Outsider's Dev Story
  Feed URL: http://blog.outsider.ne.kr/atom
  Result: 86 posts/year (Status: OK, Last: 2026-01-01)

Processing feed: OTTER LETTER
  Feed URL: https://otterletter.com/rss/
  Result: 241 posts/year (Status: OK, Last: 2025-12-31)

Processing feed: Learning English Stories
  Feed URL: http://downloads.bbc.co.uk/podcasts/worldservice/elt_drama/rss.xml
  Result: 49 posts/year (Status: OK, Last: 2026-01-02)

Processing feed: Features – The Verge
  Feed URL: http://www.theverge.com/rss/label/feature/index.xml
  Result: 0 posts/year (Status: EMPTY, Last: None)

Processing feed: MakeUseOf - Technology News
  Feed URL: http://www.makeuseof.com/service/news/feed/
  Result: 270 posts/year (Status: OK, Last: 2025-12-22)

Processing feed: Troy Hunt's Blog
  Feed URL: http://feeds.feedburner.com/TroyHunt
  Result: 75 posts/year (Status: OK, Last: 2025-12-28)

Processing feed: TechWell - Software Conferences, Training, & Resources
  Feed URL: http://feeds.feedburner.com/techwell
  Result: 0 posts/year (Status: ERROR, Last: None)

Processing feed: software articles by efron licht
  Feed URL: https://rss.diffbot.com/rss?url=https://eblog.fly.dev/index.html
  Result: 0 posts/year (Status: ERROR, Last: None)

Processing feed: Ken Shirriff's blog
  Feed URL: http://www.righto.com/feeds/posts/default
  Result: 21 posts/year (Status: OK, Last: 2025-12-30)

Processing feed: Monroe Clinton
  Feed URL: https://monroeclinton.com//index.xml
  Result: 7 posts/year (Status: OK, Last: 2025-12-31)

Processing feed: Asterisk
  Feed URL: https://asteriskmag.com/feed
  Result: 31 posts/year (Status: OK, Last: 2025-11-14)

Processing feed: TOAST Meetup
  Feed URL: https://meetup.toast.com/rss
  Result: 8 posts/year (Status: OK, Last: 2025-11-11)

Processing feed: 로글로그
  Feed URL: https://buptle-lawglog.tistory.com/rss
  Result: 52 posts/year (Status: OK, Last: 2025-12-31)

Processing feed: Ben Morris. Software architect.
  Feed URL: http://www.ben-morris.com/feed
  Result: 6 posts/year (Status: OK, Last: 2025-10-11)

Processing feed: 채널A 좌영길 기자페이지
  Feed URL: https://rss.diffbot.com/rss?url=https://media.naver.com/journalist/449/79255
  Result: 23 posts/year (Status: OK, Last: 2025-11-18)

Processing feed: Casey Handmer's blog
  Feed URL: https://caseyhandmer.wordpress.com/feed/
  Result: 29 posts/year (Status: OK, Last: 2025-12-08)

Processing feed: Terraform Industries Blog
  Feed URL: https://terraformindustries.wordpress.com/feed/
  Result: 11 posts/year (Status: OK, Last: 2025-11-17)

Processing feed: CONNECTING HEARTS! 커뮤니티 포털 디시인사이드입니다.
  Feed URL: https://rss.diffbot.com/rss?url=https://www.dcinside.com/
  Result: 0 posts/year (Status: ERROR, Last: None)

Processing feed: daniel.haxx.se
  Feed URL: https://daniel.haxx.se/blog/feed/
  Result: 47 posts/year (Status: OK, Last: 2025-12-29)

Processing feed: dthompson
  Feed URL: https://dthompson.us/feed.xml
  Result: 5 posts/year (Status: OK, Last: 2025-08-06)

Processing feed: Dan Moore!
  Feed URL: http://www.mooreds.com/wordpress/feed
  Result: 11 posts/year (Status: OK, Last: 2025-12-22)

Processing feed: The Craftsman Blog
  Feed URL: http://www.thecraftsmanblog.com/feed/
  Result: 52 posts/year (Status: OK, Last: 2025-12-22)

Processing feed: Greek Myth Comix
  Feed URL: http://greekmythcomix.wordpress.com/feed/
  Result: 14 posts/year (Status: OK, Last: 2025-12-24)

Processing feed: Mashable Light Speed
  Feed URL: https://kill-the-newsletter.com/feeds/r6g8pkubu2ffg4fe.xml
  Result: 95 posts/year (Status: OK, Last: 2025-12-31)

Processing feed: Good Movies to Watch – Highly-Rated Movies on Amazon Prime
  Feed URL: https://rss.diffbot.com/rss?url=https://agoodmovietowatch.com/all/?service%3Dusa-amazon-prime%26sort%3Dtop
  Result: 0 posts/year (Status: ERROR, Last: None)

Processing feed: The Anttidote
  Feed URL: https://suanto.com/feed.xml
  Result: 11 posts/year (Status: OK, Last: 2025-05-25)

Processing feed: LukeW | Writings on Digital Product Strategy and Design
  Feed URL: http://feeds.feedburner.com/FunctioningForm
  Result: 58 posts/year (Status: OK, Last: 2025-12-15)

Processing feed: Several People Are Coding
  Feed URL: https://slack.engineering/feed
  Result: 7 posts/year (Status: OK, Last: 2025-12-01)

Processing feed: jacob toots
  Feed URL: https://jacobian.org/index.xml
  Result: 0 posts/year (Status: OLD, Last: 2024-10-18)

Processing feed: Louwrentius
  Feed URL: https://louwrentius.com/feed/all.atom.xml
  Result: 1 posts/year (Status: OK, Last: 2025-12-20)

Processing feed: Entropic Thoughts
  Feed URL: https://buttondown.com/entropicthoughts/rss
  Result: 52 posts/year (Status: OK, Last: 2025-12-31)

Processing feed: 한겨레 길윤형 기자
  Feed URL: https://rss.diffbot.com/rss?url=https://www.hani.co.kr/arti/JOURNALIST/b11edc56
  Result: 35 posts/year (Status: OK, Last: 2025-12-21)

Processing feed: Xe Iaso's blog
  Feed URL: https://xeiaso.net/blog.rss
  Result: 49 posts/year (Status: OK, Last: 2026-01-02)

Processing feed: axio.ms
  Feed URL: http://axio.ms//feed.xml
  Result: 0 posts/year (Status: OLD, Last: 2024-06-15)

Processing feed: 우아한형제들 기술블로그
  Feed URL: https://techblog.woowahan.com/feed/
  Result: 136 posts/year (Status: OK, Last: 2025-12-26)

Processing feed: 굴러간당-시즌2 : 네이버 카페
  Feed URL: https://rss.diffbot.com/rss?url=https://m.cafe.naver.com/bestdrivercrew.cafe?tc%3Dshared_link
  Result: 0 posts/year (Status: ERROR, Last: None)

Processing feed: 클리앙 : 키보드당
  Feed URL: https://rss.diffbot.com/rss?url=https://www.clien.net/service/board/cm_keyboard
  Result: 0 posts/year (Status: ERROR, Last: None)

Processing feed: 행복한 꿈쟁이 김수영
  Feed URL: https://rss.blog.naver.com/cyberelf00.xml
  Result: 16 posts/year (Status: OK, Last: 2025-12-21)

Processing feed: 클리앙 : 개발한당
  Feed URL: https://rss.diffbot.com/rss?url=https://www.clien.net/service/board/cm_app
  Result: 0 posts/year (Status: ERROR, Last: None)

Processing feed: The Spacebar
  Feed URL: https://www.spacebar.news/rss/
  Result: 17 posts/year (Status: OK, Last: 2025-11-17)

Processing feed: wingolog
  Feed URL: http://wingolog.org/feed/atom
  Result: 13 posts/year (Status: OK, Last: 2025-12-17)

Processing feed: POPO LETTER 포포레터
  Feed URL: https://kill-the-newsletter.com/feeds/6x6ltg25ik5i1141e1r3.xml
  Result: 11 posts/year (Status: OK, Last: 2025-12-17)

Processing feed: 경향신문:IT.과학
  Feed URL: http://www.khan.co.kr/rss/rssdata/it_news.xml
  Result: 2681 posts/year (Status: OK, Last: 2025-03-18)

Processing feed: 기자소개 | 셜록
  Feed URL: https://rss.diffbot.com/rss?url=https://www.neosherlock.com/reporters
  Result: 0 posts/year (Status: OLD, Last: None)

Processing feed: 전체 BEST
  Feed URL: https://rss.diffbot.com/rss?url=https://m.ruliweb.com/best/all
  Result: 0 posts/year (Status: ERROR, Last: None)

Processing feed: tonsky.me
  Feed URL: http://tonsky.me/blog/atom.xml
  Result: 23 posts/year (Status: OK, Last: 2025-12-15)

Processing feed: Domenic Denicola
  Feed URL: http://domenic.me/atom.xml
  Result: 8 posts/year (Status: OK, Last: 2025-09-27)

Processing feed: O'Reilly Radar - Insight, analysis, and research about emerging technologies.
  Feed URL: http://feeds2.feedburner.com/oreilly/radar/atom
  Result: 183 posts/year (Status: OK, Last: 2025-12-17)

Processing feed: Jan Miksovsky’s blog
  Feed URL: https://jan.miksovsky.com/rss.xml
  Result: 12 posts/year (Status: OK, Last: 2025-12-22)

Processing feed: Haterade
  Feed URL: https://haterade.substack.com/feed/
  Result: 6 posts/year (Status: OK, Last: 2025-10-26)

Processing feed: Ludwig
  Feed URL: https://ludwigabap.bearblog.dev/feed/
  Result: 1 posts/year (Status: OK, Last: 2025-04-26)

Processing feed: Death by abstraction
  Feed URL: https://www.deathbyabstraction.com/atom.xml
  Result: 0 posts/year (Status: OLD, Last: 2024-03-26)

Processing feed: 추천글 게시판 : 클리앙
  Feed URL: https://rss.diffbot.com/rss?url=https://www.clien.net/service/recommend
  Result: 0 posts/year (Status: ERROR, Last: None)

Processing feed: 수요동물원
  Feed URL: https://kill-the-newsletter.com/feeds/l169tyt8wmozryrg.xml
  Result: 53 posts/year (Status: OK, Last: 2025-08-30)

Processing feed: Hold The Robot Blog
  Feed URL: https://holdtherobot.com/blog/rss.xml
  Result: 8 posts/year (Status: OK, Last: 2025-12-14)

Processing feed: decryption's blog
  Feed URL: https://blog.decryption.net.au/feed.xml
  Result: 20 posts/year (Status: OK, Last: 2025-12-31)

Processing feed: The Crucial Years
  Feed URL: https://billmckibben.substack.com/feed
  Result: 63 posts/year (Status: OK, Last: 2026-01-03)

Processing feed: AKE.kr
  Feed URL: https://ake.kr/rss.xml
  Result: 1 posts/year (Status: OK, Last: 2025-01-12)

Processing feed: The Haskell Programming Language's blog
  Feed URL: https://blog.haskell.org/atom.xml
  Result: 9 posts/year (Status: OK, Last: 2025-12-25)

Processing feed: Chris Grossack's Blog
  Feed URL: https://grossack.site/feed.xml
  Result: 18 posts/year (Status: OK, Last: 2025-09-03)

Processing feed: GENB
  Feed URL: https://gen-b.co/rss/
  Result: 0 posts/year (Status: ERROR, Last: None)

Processing feed: Gabe Mays
  Feed URL: https://gmays.com/feed/
  Result: 8 posts/year (Status: OK, Last: 2025-10-05)

Processing feed: One Pixel to the Left
  Feed URL: https://andrewchilds.com/rss.xml
  Result: 2 posts/year (Status: OK, Last: 2025-05-30)

Processing feed: BLOG@UBIQUITY
  Feed URL: http://ubiquity.acm.org/blog/feed/
  Result: 3 posts/year (Status: OK, Last: 2025-07-31)

Processing feed: 기억보단 기록을
  Feed URL: http://jojoldu.tistory.com/rss
  Result: 45 posts/year (Status: OK, Last: 2025-12-07)

Processing feed: Works on My Machine
  Feed URL: https://worksonmymachine.substack.com/feed
  Result: 27 posts/year (Status: OK, Last: 2025-12-31)

Processing feed: Facebook Engineering
  Feed URL: https://code.facebook.com/posts/rss
  Result: 83 posts/year (Status: OK, Last: 2025-12-22)

Processing feed: 강준만의 글 모음
  Feed URL: https://rss.diffbot.com/rss?url=https://www.khan.co.kr/reporter_article.html?id%3D631
  Result: 12 posts/year (Status: OK, Last: 2025-12-23)

Processing feed: Bethnal Green LDN
  Feed URL: https://bethnalgreenlondon.co.uk/feed/
  Result: 0 posts/year (Status: ERROR, Last: None)

Processing feed: 얼리어답터
  Feed URL: http://www.earlyadopter.co.kr/feed
  Result: 0 posts/year (Status: ERROR, Last: None)

Processing feed: Dropbox Tech Blog
  Feed URL: https://tech.dropbox.com/feed/
  Result: 0 posts/year (Status: ERROR, Last: None)

Processing feed: 기자 - inbo :::::
  Feed URL: https://rss.diffbot.com/rss?url=http://www.newstapa.org/author/inbo
  Result: 0 posts/year (Status: ERROR, Last: None)

Processing feed: 게임 BEST
  Feed URL: https://rss.diffbot.com/rss?url=https://m.ruliweb.com/best/game
  Result: 0 posts/year (Status: ERROR, Last: None)

Processing feed: 오늘의유머
  Feed URL: https://rss.diffbot.com/rss?url=http://m.todayhumor.co.kr/list.php?table%3Dbestofbest
  Result: 0 posts/year (Status: ERROR, Last: None)

Processing feed: 신성식
  Feed URL: https://rss.diffbot.com/rss?url=https://www.joongang.co.kr/reporter/1175
  Result: 0 posts/year (Status: ERROR, Last: None)

Processing feed: 클리앙 : 클래시앙
  Feed URL: https://rss.diffbot.com/rss?url=https://www.clien.net/service/board/cm_classic
  Result: 0 posts/year (Status: ERROR, Last: None)

Processing feed: 클리앙 : 레고당
  Feed URL: https://rss.diffbot.com/rss?url=https://www.clien.net/service/board/cm_lego
  Result: 0 posts/year (Status: ERROR, Last: None)

Processing feed: Reuters News | Latest Headlines & Stories
  Feed URL: https://rss.diffbot.com/rss?url=https://www.reuters.com/graphics/
  Result: 0 posts/year (Status: ERROR, Last: None)

Processing feed: Marc Andreessen | Substack
  Feed URL: https://rss.diffbot.com/rss?url=https://substack.com/@pmarca
  Result: 0 posts/year (Status: ERROR, Last: None)

Processing feed: /archives
  Feed URL: https://rss.diffbot.com/rss?url=https://www.justinmklam.com/archives/
  Result: 0 posts/year (Status: ERROR, Last: None)

Processing feed: CPP Rendering – Antoine MORRIER
  Feed URL: http://cpp-rendering.io/feed/
  Result: 3 posts/year (Status: OK, Last: 2025-11-16)

Processing feed: US cybersecurity experts plead guilty to attacking US companies with ransomware – Computerworld
  Feed URL: http://feeds.computerworld.com/Computerworld/Quickstudy
  Result: 0 posts/year (Status: ERROR, Last: None)

Processing feed: IEEE Spectrum
  Feed URL: https://spectrum.ieee.org/feeds/topic/consumer-electronics.rss
  Result: 90 posts/year (Status: OK, Last: 2026-01-03)

Processing feed: Startup Grind
  Feed URL: https://medium.com/feed/startup-grind
  Result: 0 posts/year (Status: OLD, Last: 2024-03-26)

Processing feed: 클리앙 : e북본당
  Feed URL: https://rss.diffbot.com/rss?url=https://www.clien.net/service/board/cm_ebook
  Result: 0 posts/year (Status: ERROR, Last: None)

Processing feed: 장작가 연구실
  Feed URL: http://5bpa.blog.me/rss
  Result: 0 posts/year (Status: ERROR, Last: None)

Processing feed: Register Spill
  Feed URL: https://registerspill.thorstenball.com/feed
  Result: 49 posts/year (Status: OK, Last: 2026-01-03)

Processing feed: The Register
  Feed URL: http://www.theregister.co.uk/excerpts.rss
  Result: 2327 posts/year (Status: OK, Last: 2026-01-03)

Processing feed: 당근마켓 팀블로그
  Feed URL: https://medium.com/feed/daangn/
  Result: 112 posts/year (Status: OK, Last: 2026-01-02)

Processing feed: Thingiverse - Popular Things
  Feed URL: http://www.thingiverse.com/rss/popular
  Result: 30 posts/year (Status: OK, Last: 2026-01-03)

Processing feed: Quartz
  Feed URL: http://qz.com/feed/
  Result: 1987 posts/year (Status: OK, Last: 2026-01-03)

Processing feed: 국가데이터처 공식 블로그
  Feed URL: http://blog.rss.naver.com/hi_nso.xml
  Result: 1049 posts/year (Status: OK, Last: 2026-01-02)

Processing feed: catherine jue
  Feed URL: https://kill-the-newsletter.com/feeds/uo5qe1wkkmsemnmu6in7.xml
  Result: 16 posts/year (Status: OK, Last: 2025-09-14)

[...]
  Feed URL: https://kill-the-newsletter.com/feeds/8u1x0jzzmx7qb5sjcdhq.xml
  Result: 25 posts/year (Status: OK, Last: 2025-08-30)

Processing feed: indiz
  Feed URL: http://blog.rss.naver.com/indizio.xml
  Result: 96 posts/year (Status: OK, Last: 2026-01-02)

Processing feed: Steve Klabnik
  Feed URL: https://steveklabnik.com/feed.xml
  Result: 12 posts/year (Status: OK, Last: 2025-12-21)

Processing feed: Arthur O’Dwyer
  Feed URL: https://quuxplusone.github.io/blog/feed.xml
  Result: 71 posts/year (Status: OK, Last: 2026-01-03)

Processing feed: Fortress of Doors
  Feed URL: https://www.fortressofdoors.com/rss/
  Result: 22 posts/year (Status: OK, Last: 2025-08-08)

Processing feed: Writing - rachelbythebay
  Feed URL: https://rachelbythebay.com/w/atom.xml
  Result: 0 posts/year (Status: ERROR, Last: None)

Processing feed: Truly님의 집.
  Feed URL: http://blog.moneta.co.kr/rss/blog/chung110110/-1
  Result: 182 posts/year (Status: OK, Last: 2025-12-31)

Processing feed: benjojo blog
  Feed URL: https://blog.benjojo.co.uk/rss.xml
  Result: 4 posts/year (Status: OK, Last: 2025-09-25)

Processing feed: Tech World With Milan Newsletter
  Feed URL: https://newsletter.techworld-with-milan.com/feed
  Result: 29 posts/year (Status: OK, Last: 2025-12-18)

Processing feed: JavaScript is not available.
  Feed URL: https://rss.diffbot.com/rss?url=https://x.com/smdiehl
  Result: 0 posts/year (Status: OLD, Last: None)

Processing feed: Acko.net
  Feed URL: http://acko.net/atom.xml
  Result: 2 posts/year (Status: OK, Last: 2025-08-05)

Processing feed: Julia Evans
  Feed URL: http://jvns.ca/atom.xml
  Result: 8 posts/year (Status: OK, Last: 2025-10-10)

Processing feed: Hall Place & Gardens
  Feed URL: https://www.hallplace.org.uk/feed/
  Result: 0 posts/year (Status: OLD, Last: 2024-11-07)

Processing feed: iRi
  Feed URL: https://jerf.org/iri/rss.xml
  Result: 14 posts/year (Status: OK, Last: 2025-11-11)

Processing feed: Simple Help
  Feed URL: http://feedproxy.google.com/simplehelp
  Result: 0 posts/year (Status: ERROR, Last: None)

Processing feed: Till's blog
  Feed URL: https://till.red/b/feed.xml
  Result: 0 posts/year (Status: OLD, Last: 2023-08-16)

Processing feed: Bartosz Ciechanowski
  Feed URL: https://ciechanow.ski/atom.xml
  Result: 0 posts/year (Status: OLD, Last: 2024-12-17)

Processing feed: Alexis King’s Blog
  Feed URL: https://lexi-lambda.github.io/feeds/all.rss.xml
  Result: 1 posts/year (Status: OK, Last: 2025-05-29)

Processing feed: Matt Godbolt’s blog
  Feed URL: https://xania.org/feed.atom
  Result: 284 posts/year (Status: OK, Last: 2025-12-31)

Processing feed: The Changelog RSS Feed
  Feed URL: http://changelog.complete.org/feed
  Result: 21 posts/year (Status: OK, Last: 2025-10-11)

Processing feed: sunshowers
  Feed URL: https://sunshowers.io/index.xml
  Result: 6 posts/year (Status: OK, Last: 2025-12-02)

Processing feed: Determinate Systems
  Feed URL: https://determinate.systems/rss.xml
  Result: 36 posts/year (Status: OK, Last: 2025-12-10)

Processing feed: Command-Line-Fu
  Feed URL: http://feeds2.feedburner.com/Command-line-fu
  Result: 16 posts/year (Status: OK, Last: 2025-11-25)

Processing feed: Blog | jackkelly.name
  Feed URL: http://jackkelly.name/blog/rss.xml
  Result: 16 posts/year (Status: OK, Last: 2025-02-06)

Processing feed: 기획·연재 | 이상헌의 공평한 어리석음
  Feed URL: https://rss.diffbot.com/rss?url=https://www.khan.co.kr/series/articles/ao479
  Result: 0 posts/year (Status: ERROR, Last: None)

Processing feed: 클리앙 : 3D메이킹
  Feed URL: https://rss.diffbot.com/rss?url=https://www.clien.net/service/board/cm_3dmaking
  Result: 29 posts/year (Status: OK, Last: 2025-12-29)

Processing feed: Dan Luu
  Feed URL: https://danluu.com/atom.xml
  Result: 0 posts/year (Status: OLD, Last: 2024-10-28)

Processing feed: Probably Dance
  Feed URL: https://probablydance.com/feed/
  Result: 6 posts/year (Status: OK, Last: 2025-11-04)

Processing feed: 시리즈 - 매일경제
  Feed URL: https://rss.diffbot.com/rss?url=https://m.mk.co.kr/news/series/S00000033
  Result: 8 posts/year (Status: OK, Last: 2025-12-21)

Processing feed: Our World in Data
  Feed URL: http://www.ourworldindata.org/feed/
  Result: 58 posts/year (Status: OK, Last: 2025-12-15)

Processing feed: 루나파크
  Feed URL: http://blog.rss.naver.com/lunaparkblog.xml
  Result: 13 posts/year (Status: OK, Last: 2025-12-08)

Processing feed: Recent Commits to fe-news:master
  Feed URL: https://github.com/naver/fe-news/commits/master.atom
  Result: 38 posts/year (Status: OK, Last: 2025-12-03)

Processing feed: Brendan Gregg's Blog
  Feed URL: https://www.brendangregg.com/blog/rss.xml
  Result: 10 posts/year (Status: OK, Last: 2025-12-04)

Processing feed: notgull
  Feed URL: https://notgull.net/feed.xml
  Result: 4 posts/year (Status: OK, Last: 2025-12-18)

Processing feed: Sue B. Moon's Blog
  Feed URL: http://sbmoon.tistory.com/rss
  Result: 1 posts/year (Status: OK, Last: 2025-02-11)

Processing feed: Channy's Blog
  Feed URL: http://feedproxy.google.com/channy
  Result: 0 posts/year (Status: ERROR, Last: None)

Processing feed: The Dispossessed
  Feed URL: http://blog.jinbo.net/neoscrum/rss/
  Result: 0 posts/year (Status: EMPTY, Last: None)

Processing feed: C++ on a Friday
  Feed URL: http://blog.knatten.org/feed/
  Result: 3 posts/year (Status: OK, Last: 2025-10-31)

Processing feed: 클리앙 : IoT당
  Feed URL: https://rss.diffbot.com/rss?url=https://www.clien.net/service/board/cm_iot
  Result: 0 posts/year (Status: ERROR, Last: None)

Processing feed: Unknown
  Feed URL: https://yosemitesam.ch/feed.xml
  Result: 3 posts/year (Status: OK, Last: 2026-01-01)

Processing feed: Gresham College
  Feed URL: https://kill-the-newsletter.com/feeds/okuja0em8yqohit0t2hu.xml
  Result: 79 posts/year (Status: OK, Last: 2026-01-01)

Processing feed: the jsomers.net blog
  Feed URL: http://jsomers.net/blog/feed
  Result: 1 posts/year (Status: OK, Last: 2025-08-17)

Processing feed: samwho.dev
  Feed URL: https://samwho.dev/rss.xml
  Result: 3 posts/year (Status: OK, Last: 2025-12-23)

Processing feed: selwyn essay
  Feed URL: https://rss.blog.naver.com/correspondent.xml
  Result: 43 posts/year (Status: OK, Last: 2026-01-03)

Processing feed: MaskRay
  Feed URL: https://maskray.me/blog/atom.xml
  Result: 18 posts/year (Status: OK, Last: 2025-12-31)

Processing feed: alice maz personal updates
  Feed URL: https://www.alicemaz.com/atom.xml
  Result: 0 posts/year (Status: OLD, Last: 2024-02-29)

Processing feed: OSnews
  Feed URL: http://www.osnews.com/files/recent.xml
  Result: 453 posts/year (Status: OK, Last: 2026-01-03)

Processing feed: Open Culture
  Feed URL: https://www.openculture.com/feed
  Result: 474 posts/year (Status: OK, Last: 2026-01-02)

Processing feed: <antirez>
  Feed URL: http://antirez.com/rss
  Result: 13 posts/year (Status: OK, Last: 2025-12-20)

Processing feed: Brian Donohue – Makin’ that Instapaper
  Feed URL: https://bthdonohue.com/feed.xml
  Result: 10 posts/year (Status: OK, Last: 2025-04-02)

Processing feed: Unknown
  Feed URL: https://injuly.in/rss.xml
  Result: 0 posts/year (Status: OLD, Last: None)

Processing feed: Understand Legacy Code
  Feed URL: https://understandlegacycode.com/rss.xml
  Result: 1 posts/year (Status: OK, Last: 2025-10-07)

Processing feed: 슬로우뉴스.
  Feed URL: http://feeds.feedburner.com/slownews
  Result: 737 posts/year (Status: OK, Last: 2026-01-03)

Processing feed: THE PUNT
  Feed URL: https://kill-the-newsletter.com/feeds/5ll119uu7i5szu8akmtj.xml
  Result: 0 posts/year (Status: EMPTY, Last: None)

Processing feed: 기계인간 John Grib
  Feed URL: https://johngrib.github.io/feed.xml
  Result: 46 posts/year (Status: OK, Last: 2026-01-01)

Processing feed: Wizard Zines
  Feed URL: https://wizardzines.com/index.xml
  Result: 0 posts/year (Status: EMPTY, Last: None)

Processing feed: 독서가 완성되는 공간, 사락
  Feed URL: https://rss.diffbot.com/rss?url=https://m.blog.yes24.com/penpen70
  Result: 0 posts/year (Status: ERROR, Last: None)

Processing feed: Wireframe
  Feed URL: http://soooprmx.com/wp/feed
  Result: 0 posts/year (Status: ERROR, Last: None)

Processing feed: 생각하고 나누고 공감하기…
  Feed URL: http://blog.fupfin.com/?feed=rss2
  Result: 0 posts/year (Status: OLD, Last: 2020-08-22)

Processing feed: 이택민(ytm707) 님의 방
  Feed URL: https://rss.diffbot.com/rss?url=https://m.ohmynews.com/NWS_Web/Mobile/i_Room/articles/news_list.aspx?MEM_CD%3D00801759
  Result: 0 posts/year (Status: ERROR, Last: None)

Processing feed: Interpreting Compiler
  Feed URL: http://interpiler.com/index.php/feed/
  Result: 0 posts/year (Status: ERROR, Last: None)

Processing feed: 정보엔지니어 (맥스웰의 도깨비, 양자컴퓨터)
  Feed URL: https://infoengineer.tistory.com/rss
  Result: 5 posts/year (Status: OK, Last: 2025-05-30)

Processing feed: On Error Resume Next
  Feed URL: https://www.sassnow.ski/feed.xml
  Result: 0 posts/year (Status: OLD, Last: 2024-05-24)

Processing feed: 기자 - sskim :::::
  Feed URL: https://rss.diffbot.com/rss?url=http://newstapa.org/author/sskim
  Result: 0 posts/year (Status: ERROR, Last: None)

Processing feed: 클리앙 : 소리당
  Feed URL: https://rss.diffbot.com/rss?url=https://www.clien.net/service/board/cm_music
  Result: 0 posts/year (Status: ERROR, Last: None)

Processing feed: 먼나라 이웃나라 역사 프리즘
  Feed URL: https://rss.diffbot.com/rss?url=https://www.joongang.co.kr/series/11656
  Result: 0 posts/year (Status: ERROR, Last: None)

Processing feed: 신현호의 정치가 경제를 만날 때
  Feed URL: https://rss.diffbot.com/rss?url=https://www.hani.co.kr/arti/SERIES/3050
  Result: 0 posts/year (Status: ERROR, Last: None)

Processing feed: 김영민의 본다는 것은｜동아일보
  Feed URL: https://rss.diffbot.com/rss?url=https://www.donga.com/news/Series/70040700000002
  Result: 0 posts/year (Status: ERROR, Last: None)

Processing feed: 세상을 바꾸는 시민언론 민들레
  Feed URL: https://rss.diffbot.com/rss?url=https://www.mindlenews.com/news/articleList.html?sc_sub_section_code%3DS2N1
  Result: 0 posts/year (Status: ERROR, Last: None)

Processing feed: #haymanSplaining
  Feed URL: https://blog.hayman.net/feed/
  Result: 39 posts/year (Status: OK, Last: 2025-12-16)

Processing feed: 조진서의 숫자와 세상
  Feed URL: https://rss.diffbot.com/rss?url=https://www.chosun.com/tag/chojs-numbers/
  Result: 0 posts/year (Status: ERROR, Last: None)

Processing feed: olano.dev
  Feed URL: https://olano.dev/feed.xml
  Result: 21 posts/year (Status: OK, Last: 2026-01-02)

Processing feed: marcoshplace
  Feed URL: http://marcosh.github.io/feed.xml
  Result: 5 posts/year (Status: OK, Last: 2025-10-07)

Processing feed: Pete Warden's blog
  Feed URL: http://feeds.feedburner.com/typepad/petewarden
  Result: 12 posts/year (Status: OK, Last: 2025-12-15)

Processing feed: Things Of Interest
  Feed URL: http://qntm.org/rss.php
  Result: 9 posts/year (Status: OK, Last: 2025-11-23)

Processing feed: Simon Willison's Weblog
  Feed URL: https://simonwillison.net/atom/everything/
  Result: 812 posts/year (Status: OK, Last: 2026-01-03)

Processing feed: Quentin Santos
  Feed URL: https://qsantos.fr/feed/
  Result: 13 posts/year (Status: OK, Last: 2026-01-01)

Processing feed: Casey Rodarmor's Blog
  Feed URL: https://rodarmor.com/blog/feed.xml
  Result: 0 posts/year (Status: OLD, Last: 2024-11-25)

Processing feed: Jackson Davis
  Feed URL: https://jcdav.is/atom.xml
  Result: 0 posts/year (Status: OLD, Last: 2021-01-04)

Processing feed: Stories by Martin Ayvazyan on Medium
  Feed URL: https://medium.com/feed/@martin00001313
  Result: 32 posts/year (Status: OK, Last: 2025-05-04)

Processing feed: Uncharted Territories
  Feed URL: https://unchartedterritories.tomaspueyo.com/feed
  Result: 80 posts/year (Status: OK, Last: 2026-01-01)

Processing feed: 알스카토
  Feed URL: https://brunch.co.kr/atom/@@40WR
  Result: 53 posts/year (Status: OK, Last: 2025-07-05)

Processing feed: Bit Bashing
  Feed URL: http://bitbashing.io/feed.xml
  Result: 2 posts/year (Status: OK, Last: 2025-08-18)

Processing feed: LY Corporation Tech Blog
  Feed URL: https://engineering.linecorp.com/ko/feed/
  Result: 75 posts/year (Status: OK, Last: 2025-12-30)

Processing feed: 만화로 나누는 자유/오픈소스 소프트웨어 이야기
  Feed URL: https://joone.net/feed/
  Result: 0 posts/year (Status: OLD, Last: 2024-01-12)

Processing feed: Jorge Ortiz-Fuentes' DevBites
  Feed URL: https://jorgeortiz.dev/index.xml
  Result: 56 posts/year (Status: OK, Last: 2025-12-18)

Processing feed: Sebastian Witowski
  Feed URL: https://switowski.com/feed.xml
  Result: 0 posts/year (Status: OLD, Last: 2024-11-16)

Processing feed: MOND←TECH MAGAZINE
  Feed URL: https://herecomesthemoon.net/posts/index.xml
  Result: 5 posts/year (Status: OK, Last: 2025-11-08)

Processing feed: BBC Culture
  Feed URL: http://www.bbc.com/culture/feed.rss
  Result: 218 posts/year (Status: OK, Last: 2026-01-02)

Processing feed: Nautilus
  Feed URL: https://nautil.us/feed/
  Result: 1065 posts/year (Status: OK, Last: 2026-01-02)

Processing feed: BBC Travel
  Feed URL: http://www.bbc.com/travel/feed.rss
  Result: 272 posts/year (Status: OK, Last: 2026-01-03)

Processing feed: Rest of World -
  Feed URL: https://restofworld.org/feed/
  Result: 193 posts/year (Status: OK, Last: 2025-12-30)

Processing feed: The Register - On-Prem: Personal Tech
  Feed URL: http://www.theregister.co.uk/hardware/pc_chips/headlines.atom
  Result: 413 posts/year (Status: OK, Last: 2026-01-02)

Processing feed: BBC News
  Feed URL: http://feeds.bbci.co.uk/news/in_pictures/rss.xml
  Result: 16 posts/year (Status: OK, Last: 2026-01-01)

Processing feed: Travel | The Guardian
  Feed URL: http://feeds.guardian.co.uk/theguardian/travel/rss
  Result: 94 posts/year (Status: OK, Last: 2026-01-03)

Processing feed: BBC Future
  Feed URL: http://www.bbc.com/future/feed.rss
  Result: 298 posts/year (Status: OK, Last: 2026-01-03)

Processing feed: William Durand
  Feed URL: http://feeds.feedburner.com/williamdurand
  Result: 4 posts/year (Status: OK, Last: 2025-12-30)

Processing feed: 전체 - PADO
  Feed URL: https://rss.diffbot.com/rss?url=https://www.pado.kr/all
  Result: 350400 posts/year (Status: OK, Last: 2026-01-03)

Processing feed: 클리앙 : 자전거당
  Feed URL: https://rss.diffbot.com/rss?url=https://www.clien.net/service/board/cm_bike
  Result: 0 posts/year (Status: ERROR, Last: None)

Processing feed: 클리앙 : 새로운소식
  Feed URL: https://rss.diffbot.com/rss?url=https://www.clien.net/service/board/news
  Result: 0 posts/year (Status: ERROR, Last: None)

Processing feed: 시사IN - 시사IN
  Feed URL: http://www.sisainlive.com/rss.xml
  Result: 0 posts/year (Status: ERROR, Last: None)

Processing feed: 조성문의 블로그
  Feed URL: http://sungmoon.wordpress.com/feed/
  Result: 16 posts/year (Status: OK, Last: 2025-04-11)

Processing feed: Science | The Guardian
  Feed URL: http://feeds.guardian.co.uk/theguardian/science/rss
  Result: 169 posts/year (Status: OK, Last: 2026-01-03)

Processing feed: Reactor
  Feed URL: https://reactormag.com/feed/
  Result: 627 posts/year (Status: OK, Last: 2025-12-29)

Processing feed: 굴러간당
  Feed URL: https://rss.diffbot.com/rss?url=https://damoang.net/car
  Result: 0 posts/year (Status: ERROR, Last: None)

Processing feed: Willem Pennings
  Feed URL: https://willempennings.nl/feed/
  Result: 1 posts/year (Status: OK, Last: 2025-11-11)

Processing feed: 오른쪽 BEST BEST
  Feed URL: https://rss.diffbot.com/rss?url=https://m.ruliweb.com/best/hit_history
  Result: 0 posts/year (Status: ERROR, Last: None)

Processing feed: 디시인사이드
  Feed URL: https://rss.diffbot.com/rss?url=https://m.dcinside.com/gallog/k3009795?menu%3DG_all
  Result: 0 posts/year (Status: ERROR, Last: None)

Processing feed: 한겨레 곽노필 기자
  Feed URL: https://rss.diffbot.com/rss?url=https://www.hani.co.kr/arti/JOURNALIST/7837a7b1
  Result: 0 posts/year (Status: ERROR, Last: None)

Processing feed: 사용기
  Feed URL: https://rss.diffbot.com/rss?url=https://damoang.net/tutorial?sst%3Dwr_good%26sod%3Ddesc%26sop%3Dand%26page%3D1
  Result: 0 posts/year (Status: ERROR, Last: None)

Processing feed: 404 Media
  Feed URL: https://www.404media.co/rss/
  Result: 386 posts/year (Status: OK, Last: 2026-01-02)

Processing feed: r/bestof
  Feed URL: https://api.reddit.com/subreddit/bestof
  Result: 0 posts/year (Status: ERROR, Last: None)

Processing feed: BBC News
  Feed URL: http://newsrss.bbc.co.uk/rss/newsonline_world_edition/science/nature/rss.xml
  Result: 59 posts/year (Status: OK, Last: 2026-01-02)

Processing feed: Main section | The Guardian
  Feed URL: http://www.guardian.co.uk/theguardian/mainsection/rss
  Result: 7293 posts/year (Status: OK, Last: 2026-01-03)

Processing feed: Al Jazeera – Breaking News, World News and Video from Al Jazeera
  Feed URL: http://english.aljazeera.net/Services/Rss/?PostingId=2007731105943979989
  Result: 0 posts/year (Status: ERROR, Last: None)

Processing feed: World news | The Guardian
  Feed URL: http://feeds.guardian.co.uk/theguardian/world/rss
  Result: 2423 posts/year (Status: OK, Last: 2026-01-03)

Processing feed: News - South China Morning Post
  Feed URL: http://www.scmp.com/rss/91/feed
  Result: 23414 posts/year (Status: OK, Last: 2026-01-03)

Processing feed: 스코틀랜드에서 삽니다
  Feed URL: https://rss.diffbot.com/rss?url=https://www.ohmynews.com/NWS_Web/Series/series_general_list.aspx?SRS_CD%3D0000017956
  Result: 0 posts/year (Status: OLD, Last: 2023-09-24)

Processing feed: 김도훈의 엑스레이 - 조선일보
  Feed URL: https://rss.diffbot.com/rss?url=https://www.chosun.com/tag/kim-x-ray/
  Result: 52 posts/year (Status: OK, Last: 2025-12-29)

Processing feed: 오호츠크 리포트
  Feed URL: https://rss.diffbot.com/rss?url=http://55check.com/home
  Result: 0 posts/year (Status: ERROR, Last: None)

Processing feed: Tag: blog
  Feed URL: https://rss.diffbot.com/rss?url=https://garden.christophertee.dev/tags/blog
  Result: 0 posts/year (Status: OLD, Last: None)

Processing feed: 추천 : 네이버 블로그
  Feed URL: https://rss.diffbot.com/rss?url=https://m.blog.naver.com/Recommendation.naver
  Result: 1 posts/year (Status: OK, Last: 2025-12-16)

Processing feed: 김남희의 걷다 보면
  Feed URL: https://rss.diffbot.com/rss?url=https://www.hani.co.kr/arti/SERIES/2811
  Result: 0 posts/year (Status: ERROR, Last: None)

Processing feed: 클리앙 : 바다건너당
  Feed URL: https://rss.diffbot.com/rss?url=https://www.clien.net/service/board/cm_oversea
  Result: 0 posts/year (Status: ERROR, Last: None)

Processing feed: 나스당
  Feed URL: https://rss.diffbot.com/rss?url=https://damoang.net/nas
  Result: 0 posts/year (Status: ERROR, Last: None)

Processing feed: 키보드당
  Feed URL: https://rss.diffbot.com/rss?url=https://damoang.net/keyboard
  Result: 0 posts/year (Status: ERROR, Last: None)

Processing feed: 클리앙 : 팁과강좌
  Feed URL: https://rss.diffbot.com/rss?url=https://www.clien.net/service/board/lecture
  Result: 0 posts/year (Status: ERROR, Last: None)

Processing feed: 한겨레 이문영 기자
  Feed URL: https://rss.diffbot.com/rss?url=https://www.hani.co.kr/arti/JOURNALIST/490a58f1
  Result: 0 posts/year (Status: ERROR, Last: None)

Processing feed: 클리앙 : 위스키당
  Feed URL: https://rss.diffbot.com/rss?url=https://www.clien.net/service/board/cm_whiskey
  Result: 0 posts/year (Status: ERROR, Last: None)

Processing feed: 클리앙 : 사진게시판
  Feed URL: https://rss.diffbot.com/rss?url=https://www.clien.net/service/board/image
  Result: 964 posts/year (Status: OK, Last: 2026-01-02)

Processing feed: 클리앙 : 나스당
  Feed URL: https://rss.diffbot.com/rss?url=https://www.clien.net/service/board/cm_nas
  Result: 158 posts/year (Status: OK, Last: 2026-01-02)

Processing feed: 힛갤 BEST
  Feed URL: https://rss.diffbot.com/rss?url=https://m.ruliweb.com/best/selection
  Result: 28 posts/year (Status: OK, Last: 2026-01-02)

Processing feed: 유머 BEST
  Feed URL: https://rss.diffbot.com/rss?url=https://m.ruliweb.com/best/humor_only
  Result: 66839 posts/year (Status: OK, Last: 2026-01-03)

Processing feed: Talk About English (Learn English)
  Feed URL: http://downloads.bbc.co.uk/podcasts/worldservice/tae/rss.xml
  Result: 57 posts/year (Status: OK, Last: 2025-12-30)

Processing feed: rohanrd.xyz
  Feed URL: https://rohanrd.xyz/index.xml
  Result: 0 posts/year (Status: ERROR, Last: None)

SUMMARY:
Total feeds processed: 0
