Feedly Feed Analysis Log - 2026-01-03 13:15:29
User request: Parse OPML file and analyze feed frequencies
Input file: ./feedly.opml
Output file: ./feedly_feeds.jsonl
============================================================

Processing feed 1/1263: NewsPeppermint » Feed
  Feed URL: http://newspeppermint.com/feed/
  Result: 10 posts/year (Status: OK, Last: 2025-05-15)
Processing feed 2/1263: HowToCreate - Opera
  Feed URL: http://www.howtocreate.co.uk/operaStuff/operaStuff.xml
  Result: 0 posts/year (Status: OLD, Last: 2009-05-22)
Processing feed 3/1263: 오늘의뉴스
  Feed URL: http://rss.etnews.co.kr/Section901.xml
  Result: 14 posts/year (Status: OK, Last: 2026-01-03)
Processing feed 4/1263: 많이본기사 : 뉴스 : 한겨레 뉴스 - 인터넷한겨레
  Feed URL: http://www.hani.co.kr/rss/newsrank/
  Result: 70 posts/year (Status: OK, Last: 2026-01-03)
Processing feed 5/1263: 뉴스톱 - 전체기사
  Feed URL: http://www.newstof.com/rss/allArticle.xml
  Result: 50 posts/year (Status: OK, Last: 2026-01-02)
Processing feed 6/1263: 주요기사 : 뉴스 : 한겨레 뉴스 - 인터넷한겨레
  Feed URL: http://www.hani.co.kr/rss/lead/
  Result: 0 posts/year (Status: ERROR, Last: None)
Processing feed 7/1263: 오마이뉴스 - 사회
  Feed URL: http://rss.ohmynews.com/rss/society.xml
  Result: 20 posts/year (Status: OK, Last: 2026-01-03)
Processing feed 8/1263: 미디어오늘 - 전체기사
  Feed URL: http://www.mediatoday.co.kr/rss/allArticle.xml
  Result: 50 posts/year (Status: OK, Last: 2026-01-03)
Processing feed 9/1263: 채널예스 : 영화
  Feed URL: http://ch.yes24.com/feed/column/2172
  Result: 0 posts/year (Status: ERROR, Last: None)
Processing feed 10/1263: 채널예스 : 책
  Feed URL: http://ch.yes24.com/feed/column/2162
  Result: 0 posts/year (Status: ERROR, Last: None)
Processing feed 11/1263: 채널예스 : 만나고 싶었어요!
  Feed URL: http://ch.yes24.com/feed/columns/1958
  Result: 0 posts/year (Status: ERROR, Last: None)
Processing feed 12/1263: 채널예스 : 작가와의 만남
  Feed URL: http://ch.yes24.com/feed/columns/1959
  Result: 0 posts/year (Status: ERROR, Last: None)
Processing feed 13/1263: 채널예스 : 특집 기획
  Feed URL: http://ch.yes24.com/feed/column/2184
  Result: 0 posts/year (Status: ERROR, Last: None)
Processing feed 14/1263: 채널예스 : 여행/취미
  Feed URL: http://ch.yes24.com/feed/column/2168
  Result: 0 posts/year (Status: ERROR, Last: None)
Processing feed 15/1263: London Review of Books
  Feed URL: http://www.lrb.co.uk/homerss.xml
  Result: 0 posts/year (Status: ERROR, Last: None)
Processing feed 16/1263: 채널예스 : 음악
  Feed URL: http://ch.yes24.com/feed/column/2163
  Result: 0 posts/year (Status: ERROR, Last: None)
Processing feed 17/1263: 채널예스 : 주목, 이주의 신간
  Feed URL: http://ch.yes24.com/feed/column/2177
  Result: 0 posts/year (Status: ERROR, Last: None)
Processing feed 18/1263: 채널예스 : 대중문화
  Feed URL: http://ch.yes24.com/feed/column/2165
  Result: 0 posts/year (Status: ERROR, Last: None)
Processing feed 19/1263: 디에디트
  Feed URL: http://the-edit.co.kr/feed
  Result: 10 posts/year (Status: OK, Last: 2026-01-02)
Processing feed 20/1263: Philosophy Now
  Feed URL: http://www.philosophynow.org/rss
  Result: 33 posts/year (Status: OK, Last: 2025-12-06)
Processing feed 21/1263: 클리앙 : 덕질한당
  Feed URL: https://rss.diffbot.com/rss?url=https://www.clien.net/service/board/cm_ku
  Result: 0 posts/year (Status: ERROR, Last: None)
Processing feed 22/1263: 클리앙 : 날아간당
  Feed URL: https://rss.diffbot.com/rss?url=https://www.clien.net/service/board/cm_airplane
  Result: 0 posts/year (Status: ERROR, Last: None)
Processing feed 23/1263: Potentials, IEEE - new TOC
  Feed URL: http://ieeexplore.ieee.org/rss/TOC45.XML
  Result: 13 posts/year (Status: OK, Last: 2025-11-07)
Processing feed 24/1263: 클리앙 : 달린당
  Feed URL: https://rss.diffbot.com/rss?url=https://www.clien.net/service/board/cm_running
  Result: 0 posts/year (Status: ERROR, Last: None)
Processing feed 25/1263: What's On
  Feed URL: https://rss.diffbot.com/rss?url=https://www.gresham.ac.uk/whats-on
  Result: 0 posts/year (Status: OLD, Last: None)
Processing feed 26/1263: News Shopper | Bexley
  Feed URL: http://www.newsshopper.co.uk/news/bexley/rss/
  Result: 50 posts/year (Status: OK, Last: 2026-01-01)
Processing feed 27/1263: MakeUseOf - iPhone
  Feed URL: http://www.makeuseof.com/service/ios/feed/
  Result: 10 posts/year (Status: OK, Last: 2026-01-01)
Processing feed 28/1263: Aeon | a world of ideas
  Feed URL: https://aeon.co/feed.rss
  Result: 20 posts/year (Status: OK, Last: 2025-12-22)
Processing feed 29/1263: Merriam-Webster's Word of the Day
  Feed URL: http://www.merriam-webster.com/word/index.xml
  Result: 10 posts/year (Status: OK, Last: 2026-01-03)
Processing feed 30/1263: FlowingData
  Feed URL: http://feeds.feedburner.com/FlowingData
  Result: 10 posts/year (Status: OK, Last: 2026-01-02)
Processing feed 31/1263: 거리의 풍경
  Feed URL: http://blog.rss.naver.com/unviajero.xml
  Result: 50 posts/year (Status: OK, Last: 2026-01-02)
Processing feed 32/1263: IEEE Annals of the History of Computing - new TOC
  Feed URL: http://ieeexplore.ieee.org/rss/TOC85.XML
  Result: 25 posts/year (Status: OK, Last: 2025-12-23)
Processing feed 33/1263: Toxel.com
  Feed URL: http://feeds.feedburner.com/toxel
  Result: 10 posts/year (Status: OK, Last: 2026-01-02)
Processing feed 34/1263: Terence Eden’s Blog
  Feed URL: https://shkspr.mobi/blog/feed/atom/
  Result: 20 posts/year (Status: OK, Last: 2026-01-03)
Processing feed 35/1263: Computing | The Guardian
  Feed URL: http://www.guardian.co.uk/technology/computing/rss
  Result: 20 posts/year (Status: OK, Last: 2026-01-03)
Processing feed 36/1263: Best of The Atlantic
  Feed URL: http://feeds.feedburner.com/Best-Of-The-Atlantic
  Result: 23 posts/year (Status: OK, Last: 2026-01-03)
Processing feed 37/1263: Semafor
  Feed URL: https://www.semafor.com/rss.xml
  Result: 109 posts/year (Status: OK, Last: 2026-01-03)
Processing feed 38/1263: (구)아이포니앙
  Feed URL: https://rss.diffbot.com/rss?url=https://damoang.net/iphone
  Result: 0 posts/year (Status: ERROR, Last: None)
Processing feed 39/1263: 그림만화 BEST
  Feed URL: https://rss.diffbot.com/rss?url=https://m.ruliweb.com/best/cartoon
  Result: 28 posts/year (Status: OK, Last: 2026-01-03)
Processing feed 40/1263: Hack a Day
  Feed URL: http://hackaday.com/feed/
  Result: 7 posts/year (Status: OK, Last: 2026-01-03)
Processing feed 41/1263: Atlas Obscura
  Feed URL: http://atlasobscura.com/rss.xml
  Result: 24 posts/year (Status: OK, Last: 2026-01-02)
Processing feed 42/1263: BBC News
  Feed URL: http://newsrss.bbc.co.uk/rss/newsonline_world_edition/business/rss.xml
  Result: 50 posts/year (Status: OK, Last: 2026-01-03)
Processing feed 43/1263: Wired Top Stories
  Feed URL: http://www.wired.com/news/feeds/rss2/0,2610,,00.xml
  Result: 0 posts/year (Status: ERROR, Last: None)
Processing feed 44/1263: Phoronix
  Feed URL: http://www.phoronix.com/rss.php
  Result: 32 posts/year (Status: OK, Last: 2026-01-03)
Processing feed 45/1263: Everything
  Feed URL: http://www.newyorker.com/services/mrss/feeds/everything.xml
  Result: 50 posts/year (Status: OK, Last: 2026-01-03)
Processing feed 46/1263: 달린당
  Feed URL: https://rss.diffbot.com/rss?url=https://damoang.net/running
  Result: 0 posts/year (Status: ERROR, Last: None)
Processing feed 47/1263: 바다건너당
  Feed URL: https://rss.diffbot.com/rss?url=https://damoang.net/overseas
  Result: 0 posts/year (Status: ERROR, Last: None)
Processing feed 48/1263: Philosophy Now
  Feed URL: http://www.philosophynow.org/rss
  Result: 33 posts/year (Status: OK, Last: 2025-12-06)
Processing feed 49/1263: Potentials, IEEE - new TOC
  Feed URL: http://ieeexplore.ieee.org/rss/TOC45.XML
  Result: 13 posts/year (Status: OK, Last: 2025-11-07)
Processing feed 50/1263: Spectrum, IEEE - new TOC
  Feed URL: http://ieeexplore.ieee.org/rss/TOC6.XML
  Result: 23 posts/year (Status: OK, Last: 2025-12-10)
Processing feed 51/1263: IEEE Annals of the History of Computing - new TOC
  Feed URL: http://ieeexplore.ieee.org/rss/TOC85.XML
  Result: 25 posts/year (Status: OK, Last: 2025-12-23)
Processing feed 52/1263: Transactions on Computers - new TOC
  Feed URL: http://ieeexplore.ieee.org/rss/TOC12.XML
  Result: 29 posts/year (Status: OK, Last: 2025-11-14)
Processing feed 53/1263: Computer - new TOC
  Feed URL: http://ieeexplore.ieee.org/rss/TOC2.XML
  Result: 50 posts/year (Status: OK, Last: 2025-12-31)
Processing feed 54/1263: Engadget
  Feed URL: http://www.engadget.com/rss.xml
  Result: 50 posts/year (Status: OK, Last: 2026-01-03)
Processing feed 55/1263: 지도와 Web2.0 그리고 한국의 미래
  Feed URL: http://feeds2.feedburner.com/blogspot/InternetMap
  Result: 10 posts/year (Status: OK, Last: 2025-12-29)
Processing feed 56/1263: Christian Heilmann
  Feed URL: http://www.wait-till-i.com/wp-atom.php
  Result: 0 posts/year (Status: ERROR, Last: None)
Processing feed 57/1263: Jonathan Snook
  Feed URL: http://feeds.feedburner.com/snookca
  Result: 8 posts/year (Status: OK, Last: 2025-12-31)
Processing feed 58/1263: Nettuts+
  Feed URL: http://net.tutsplus.com/feed/
  Result: 9 posts/year (Status: OK, Last: 2025-07-21)
Processing feed 59/1263: Remy Sharp
  Feed URL: http://feeds.feedburner.com/remysharp
  Result: 42 posts/year (Status: OK, Last: 2026-01-01)
Processing feed 60/1263: Thoughts From Eric
  Feed URL: http://meyerweb.com/eric/thoughts/rss2/summary
  Result: 10 posts/year (Status: OK, Last: 2025-12-19)
Processing feed 61/1263: Bruce Lawson's personal site
  Feed URL: http://www.brucelawson.co.uk/feed/
  Result: 6 posts/year (Status: OK, Last: 2025-12-12)
Processing feed 62/1263: HTML + CSS + JavaScript
  Feed URL: http://feeds2.feedburner.com/HtmlCssJavascript
  Result: 3 posts/year (Status: OK, Last: 2025-10-15)
Processing feed 63/1263: Software As She's Developed
  Feed URL: http://softwareas.com/feed
  Result: 0 posts/year (Status: OLD, Last: 2024-12-21)
Processing feed 64/1263: Lea Verou
  Feed URL: http://leaverou.me/feed/
  Result: 0 posts/year (Status: OLD, Last: 2023-08-31)
Processing feed 65/1263: Smashing Coding
  Feed URL: http://rss1.smashingmagazine.com/feed/?f=coding-std
  Result: 40 posts/year (Status: OK, Last: 2025-12-30)
Processing feed 66/1263: Universe Today
  Feed URL: http://www.universetoday.com/universetoday.xml
  Result: 20 posts/year (Status: OK, Last: 2026-01-02)
Processing feed 67/1263: Centauri Dreams — Imagining and Planning Interstellar Exploration
  Feed URL: https://follow.it/centauri-dreams-imagining-and-planning-interstellar-exploration/rss
  Result: 20 posts/year (Status: OK, Last: 2026-01-01)
Processing feed 68/1263: The Space Review
  Feed URL: http://www.thespacereview.com/articles.xml
  Result: 214 posts/year (Status: OK, Last: 2025-12-22)
Processing feed 69/1263: SPACE.com
  Feed URL: http://www.space.com/syn/space.xml
  Result: 50 posts/year (Status: OK, Last: 2026-01-03)
Processing feed 70/1263: astrobites
  Feed URL: http://astrobites.com/feed/
  Result: 10 posts/year (Status: OK, Last: 2026-01-01)
Processing feed 71/1263: SkyandTelescope.com's Most Recent Articles
  Feed URL: http://www.skyandtelescope.com/MostRecent.rss
  Result: 0 posts/year (Status: ERROR, Last: None)
Processing feed 72/1263: Cycling UK Forum
  Feed URL: https://forum.cyclinguk.org/app.php/feed/forum/55?sid=c640585fb4d2be3887a7e8505b9de849
  Result: 10 posts/year (Status: OK, Last: 2026-01-01)
Processing feed 73/1263: Ye Olde Blogroll — Firehose
  Feed URL: https://blogroll.org/feed/
  Result: 9 posts/year (Status: OK, Last: 2025-11-28)
Processing feed 74/1263: 채널예스 : ARTICLE
  Feed URL: http://ch.yes24.com/feed/columns/
  Result: 0 posts/year (Status: ERROR, Last: None)
Processing feed 75/1263: The Free Press
  Feed URL: https://bariweiss.substack.com/feed/
  Result: 20 posts/year (Status: OK, Last: 2026-01-03)
Processing feed 76/1263: Discover Blogs
  Feed URL: http://feeds.feedburner.com/DiscoverBlogs
  Result: 20 posts/year (Status: OK, Last: 2026-01-02)
Processing feed 77/1263: Opinion | The Guardian
  Feed URL: http://feeds.theguardian.com/theguardian/us/commentisfree/rss
  Result: 22 posts/year (Status: OK, Last: 2026-01-03)
Processing feed 78/1263: 강갑생의 바퀴와 날개
  Feed URL: https://rss.diffbot.com/rss?url=https://www.joongang.co.kr/series/11059
  Result: 24 posts/year (Status: OK, Last: 2025-12-30)
Processing feed 79/1263: InfoQ
  Feed URL: http://www.infoq.com/rss/rss.action
  Result: 15 posts/year (Status: OK, Last: 2026-01-03)
Processing feed 80/1263: TechBlogPosts
  Feed URL: https://techblogposts.com/rss.xml
  Result: 10 posts/year (Status: OK, Last: 2026-01-02)
Processing feed 81/1263: BBC News
  Feed URL: http://newsrss.bbc.co.uk/rss/newsonline_world_edition/technology/rss.xml
  Result: 56 posts/year (Status: OK, Last: 2026-01-02)
Processing feed 82/1263: 클리앙 : 사용기
  Feed URL: https://rss.diffbot.com/rss?url=https://www.clien.net/service/board/use
  Result: 0 posts/year (Status: ERROR, Last: None)
Processing feed 83/1263: ErgoMechBoards
  Feed URL: https://rss.diffbot.com/rss?url=https://www.reddit.com/r/ErgoMechKeyboards/
  Result: 0 posts/year (Status: ERROR, Last: None)
Processing feed 84/1263: 책과 생각 뉴스
  Feed URL: https://rss.diffbot.com/rss?url=https://www.hani.co.kr/arti/culture/book
  Result: 0 posts/year (Status: ERROR, Last: None)
Processing feed 85/1263: 개발한당
  Feed URL: https://rss.diffbot.com/rss?url=https://damoang.net/development
  Result: 0 posts/year (Status: ERROR, Last: None)
Processing feed 86/1263: Time Out London
  Feed URL: http://www.timeout.com/london/blog/feed.rss
  Result: 100 posts/year (Status: OK, Last: 2026-01-02)
Processing feed 87/1263: Bear Blog Trending Posts
  Feed URL: https://bearblog.dev/discover/feed/
  Result: 20 posts/year (Status: OK, Last: 2026-01-02)
Processing feed 88/1263: Tip Tech : KBDMania
  Feed URL: http://www.kbdmania.net/xe/?mid=tipandtech&act=rss
  Result: 0 posts/year (Status: OLD, Last: 2022-01-27)
Processing feed 89/1263: OECD.org - Korea
  Feed URL: http://www.oecd.org/RSS_channel/0,3045,en_33873108_33873555_1_1_1_1_1,00.xml
  Result: 0 posts/year (Status: ERROR, Last: None)
Processing feed 90/1263: Life is Good
  Feed URL: http://feeds.feedburner.com/tistory-lifeisgood
  Result: 0 posts/year (Status: OLD, Last: 2023-10-17)
Processing feed 91/1263: 대영제국에서 온 편지
  Feed URL: https://kill-the-newsletter.com/feeds/jhj2a69t5g5lu93s.xml
  Result: 0 posts/year (Status: OLD, Last: 2022-04-04)
Processing feed 92/1263: Paul Graham: Essays
  Feed URL: http://www.aaronsw.com/2002/feeds/pgessays.rss
  Result: 0 posts/year (Status: OLD, Last: None)
Processing feed 93/1263: PATENT DROP
  Feed URL: https://patentdrop.substack.com/feed/
  Result: 0 posts/year (Status: EMPTY, Last: None)
Processing feed 94/1263: 이글루스 '얼리어답터' 테마 인기글
  Feed URL: http://valley.egloos.com/theme/rss/top/earlyadopter
  Result: 0 posts/year (Status: ERROR, Last: None)
Processing feed 95/1263: The Rebooting
  Feed URL: https://therebooting.substack.com/feed/
  Result: 0 posts/year (Status: OLD, Last: 2023-12-18)
Processing feed 96/1263: 박태웅
  Feed URL: https://brunch.co.kr/rss/@@Qk4
  Result: 4 posts/year (Status: OK, Last: 2025-10-27)
Processing feed 97/1263: nixCraft Linux Sys Admin Blog
  Feed URL: http://feeds.cyberciti.biz/Nixcraft-LinuxFreebsdSolarisTipsTricks
  Result: 9 posts/year (Status: OK, Last: 2025-03-18)
Processing feed 98/1263: Software As She's Developed
  Feed URL: http://softwareas.com/feed
  Result: 0 posts/year (Status: OLD, Last: 2024-12-21)
Processing feed 99/1263: tech.ssut
  Feed URL: https://tech.ssut.me/rss/
  Result: 1 posts/year (Status: OK, Last: 2025-05-10)
Processing feed 100/1263: Starkey Comics
  Feed URL: https://starkeycomics.com/feed/
  Result: 10 posts/year (Status: OK, Last: 2025-10-31)
Processing feed 101/1263: 컬리 기술 블로그
  Feed URL: http://thefarmersfront.github.io/feed.xml
  Result: 24 posts/year (Status: OK, Last: 2025-12-23)
Processing feed 102/1263: 과학 – NewsPeppermint
  Feed URL: http://newspeppermint.com/category/science-environment/feed/
  Result: 0 posts/year (Status: OLD, Last: 2023-02-27)
Processing feed 103/1263: 라디오키즈@LifeLog
  Feed URL: http://feeds.neoearly.net/radiokidz
  Result: 0 posts/year (Status: EMPTY, Last: None)
Processing feed 104/1263: Joel on Software
  Feed URL: http://www.joelonsoftware.com/rss.xml
  Result: 0 posts/year (Status: OLD, Last: 2022-12-19)
Processing feed 105/1263: Alden's Dev Log
  Feed URL: https://alden-kang.tistory.com/rss
  Result: 0 posts/year (Status: OLD, Last: 2023-02-19)
Processing feed 106/1263: Fathy Boundjadj
  Feed URL: https://fathy.fr/rss.xml
  Result: 0 posts/year (Status: OLD, Last: 2023-01-27)
Processing feed 107/1263: 노란 잠수함
  Feed URL: http://blog.rss.naver.com/rockks77.xml
  Result: 0 posts/year (Status: OLD, Last: 2015-06-16)
Processing feed 108/1263: Blog Needs a Name
  Feed URL: https://rss.diffbot.com/rss?url=https://ahgamut.github.io/
  Result: 0 posts/year (Status: ERROR, Last: None)
Processing feed 109/1263: 이글루스 '도서' 테마 인기글
  Feed URL: http://valley.egloos.com/theme/rss/top/book
  Result: 0 posts/year (Status: ERROR, Last: None)
Processing feed 110/1263: Design in government
  Feed URL: https://designnotes.blog.gov.uk/feed/
  Result: 5 posts/year (Status: OK, Last: 2025-12-09)
Processing feed 111/1263: 주요기사 : 뉴스 : 한겨레 뉴스 - 인터넷한겨레
  Feed URL: http://www.hani.co.kr/rss/lead/
  Result: 0 posts/year (Status: ERROR, Last: None)
Processing feed 112/1263: 이글루스 '애니메이션' 테마 인기글
  Feed URL: http://valley.egloos.com/theme/rss/top/animation
  Result: 0 posts/year (Status: ERROR, Last: None)
Processing feed 113/1263: 딥다이브
  Feed URL: https://kill-the-newsletter.com/feeds/n6qd9vhay5vjko7z.xml
  Result: 0 posts/year (Status: OLD, Last: 2023-03-19)
Processing feed 114/1263: Instructables: featured
  Feed URL: http://feeds.feedburner.com/instructables/featured
  Result: 0 posts/year (Status: OLD, Last: 2019-11-05)
Processing feed 115/1263: 이기적이고 주관적이고 객관성없는곳
  Feed URL: http://blog.rss.naver.com/raimorenji.xml
  Result: 0 posts/year (Status: OLD, Last: 2023-06-23)
Processing feed 116/1263: CaN (Computer & Network) Tips
  Feed URL: http://pakcw.cafe24.com/rss
  Result: 0 posts/year (Status: ERROR, Last: None)
Processing feed 117/1263: Roy Tanck
  Feed URL: http://feeds.feedburner.com/RoyTancksWeblog
  Result: 6 posts/year (Status: OK, Last: 2025-07-30)
Processing feed 118/1263: Posts on Tech Notes by Natan Yellin
  Feed URL: https://natanyellin.com/posts/index.xml
  Result: 0 posts/year (Status: OLD, Last: 2023-04-17)
Processing feed 119/1263: 책습관
  Feed URL: https://brunch.co.kr/rss/@@hTC
  Result: 0 posts/year (Status: OLD, Last: 2018-11-23)
Processing feed 120/1263: 채널예스 : 작가와의 만남
  Feed URL: http://ch.yes24.com/feed/columns/1959
  Result: 0 posts/year (Status: ERROR, Last: None)
Processing feed 121/1263: Lambda the Ultimate - Programming Languages Weblog
  Feed URL: http://lambda-the-ultimate.org/rss.xml
  Result: 0 posts/year (Status: OLD, Last: 2023-03-04)
Processing feed 122/1263: Kellan Elliott-McCrea: Blog
  Feed URL: http://laughingmeme.org/feed
  Result: 2 posts/year (Status: OK, Last: 2025-06-01)
Processing feed 123/1263: 썸원의 SUMMARY&EDIT
  Feed URL: https://kill-the-newsletter.com/feeds/9kaluz14ci2ppe19.xml
  Result: 0 posts/year (Status: OLD, Last: 2022-02-23)
Processing feed 124/1263: Pikuma
  Feed URL: https://pikuma.com/feed
  Result: 0 posts/year (Status: OLD, Last: 2024-08-08)
Processing feed 125/1263: High Scalability
  Feed URL: http://feeds.feedburner.com/HighScalability
  Result: 0 posts/year (Status: OLD, Last: 2023-08-16)
Processing feed 126/1263: Instructables: popular
  Feed URL: http://feeds.feedburner.com/instructables/popular
  Result: 0 posts/year (Status: OLD, Last: 2019-10-31)
Processing feed 127/1263: Kalzumeus Software
  Feed URL: http://www.kalzumeus.com/feed/
  Result: 1 posts/year (Status: OK, Last: 2025-02-10)
Processing feed 128/1263: Lea Verou
  Feed URL: http://leaverou.me/feed/
  Result: 0 posts/year (Status: OLD, Last: 2023-08-31)
Processing feed 129/1263: 이글루스 '영화' 테마 인기글
  Feed URL: http://valley.egloos.com/theme/rss/top/movie
  Result: 0 posts/year (Status: ERROR, Last: None)
Processing feed 130/1263: Insuk's memolog at Yellow Submarine
  Feed URL: http://feed43.com/0880813416673318.xml
  Result: 0 posts/year (Status: ERROR, Last: None)
Processing feed 131/1263: eincs
  Feed URL: http://eincs.com/atom.xml
  Result: 0 posts/year (Status: OLD, Last: 2013-08-05)
Processing feed 132/1263: Nightaholic
  Feed URL: http://cyhome.cyworld.com/a1425316/rss2
  Result: 0 posts/year (Status: ERROR, Last: None)
Processing feed 133/1263: Market Information : KBDMania
  Feed URL: http://www.kbdmania.net/xe/?mid=market_info&act=rss
  Result: 0 posts/year (Status: OLD, Last: 2024-06-13)
Processing feed 134/1263: 산으로
  Feed URL: http://blog.rss.naver.com/kl35250kl.xml
  Result: 0 posts/year (Status: OLD, Last: 2019-04-27)
Processing feed 135/1263: 기즈모 블로그(디지털 오르가슴 연구소)
  Feed URL: http://blog.rss.naver.com/gizmoblog.xml
  Result: 0 posts/year (Status: OLD, Last: 2022-03-02)
Processing feed 136/1263: Michael Feathers
  Feed URL: https://michaelfeathers.silvrback.com/feed
  Result: 0 posts/year (Status: OLD, Last: 2023-07-11)
Processing feed 137/1263: Caffeinspiration
  Feed URL: https://alexanderell.is/index.xml
  Result: 5 posts/year (Status: OK, Last: 2025-11-16)
Processing feed 138/1263: 이글루스 '여행' 테마 인기글
  Feed URL: http://valley.egloos.com/theme/rss/top/travel
  Result: 0 posts/year (Status: ERROR, Last: None)
Processing feed 139/1263: raganwald.com
  Feed URL: https://raganwald.com/atom.xml
  Result: 0 posts/year (Status: OLD, Last: 2023-04-27)
Processing feed 140/1263: 빈꿈 EMPTYDREAM
  Feed URL: http://emptydream.tistory.com/rss
  Result: 0 posts/year (Status: OLD, Last: 2023-06-29)
Processing feed 141/1263: Stories by 조은, Eun Cho on Medium
  Feed URL: https://medium.com/feed/@euncho/
  Result: 0 posts/year (Status: ERROR, Last: None)
Processing feed 142/1263: 곰개구리
  Feed URL: http://kisskys.tistory.com/rss
  Result: 0 posts/year (Status: OLD, Last: 2012-11-06)
Processing feed 143/1263: parsonsmatt.org
  Feed URL: https://www.parsonsmatt.org/feed.xml
  Result: 2 posts/year (Status: OK, Last: 2025-12-17)
Processing feed 144/1263: C with Crosses
  Feed URL: https://victor-istomin.github.io/c-with-crosses/feed.xml
  Result: 0 posts/year (Status: OLD, Last: 2023-07-13)
Processing feed 145/1263: ZNINLDN
  Feed URL: http://zninldn.wordpress.com/feed/
  Result: 0 posts/year (Status: OLD, Last: 2018-03-07)
Processing feed 146/1263: To be happy...
  Feed URL: http://blog.moneta.co.kr/rss/blog/ky2kyung/-1
  Result: 0 posts/year (Status: OLD, Last: 2020-02-22)
Processing feed 147/1263: Rene & Rousseau
  Feed URL: http://skysummer.com/rss
  Result: 0 posts/year (Status: ERROR, Last: None)
Processing feed 148/1263: KLDP - 토론, 토의
  Feed URL: http://kldp.org/taxonomy/term/32/0/feed
  Result: 0 posts/year (Status: OLD, Last: 2023-12-06)
Processing feed 149/1263: CSS Wizardry
  Feed URL: http://feeds.feedburner.com/csswizardry
  Result: 6 posts/year (Status: OK, Last: 2025-08-18)
Processing feed 150/1263: au VimEnter
  Feed URL: https://au-vimenter.github.io/feed.xml
  Result: 0 posts/year (Status: OLD, Last: 2024-11-08)
Processing feed 151/1263: mango.pdf.zone
  Feed URL: https://mango.pdf.zone/feed.xml
  Result: 0 posts/year (Status: OLD, Last: 2022-01-12)
Processing feed 152/1263: Paul Cavallaro's Blog on Paul Cavallaro
  Feed URL: https://paulcavallaro.com/blog/index.xml
  Result: 1 posts/year (Status: OK, Last: 2025-07-25)
Processing feed 153/1263: 올빼미 화원
  Feed URL: http://blog.rss.naver.com/manwha21
  Result: 0 posts/year (Status: EMPTY, Last: None)
Processing feed 154/1263: The Diff
  Feed URL: https://diff.substack.com/feed/
  Result: 0 posts/year (Status: ERROR, Last: None)
Processing feed 155/1263: HowToCreate - Opera
  Feed URL: http://www.howtocreate.co.uk/operaStuff/operaStuff.xml
  Result: 0 posts/year (Status: OLD, Last: 2009-05-22)
Processing feed 156/1263: KAIST, NSLab 일상 생활
  Feed URL: http://nslab.tistory.com/rss
  Result: 0 posts/year (Status: ERROR, Last: None)
Processing feed 157/1263: https://mobile.newsis.com/search.php?kwd=조수원+BOOK북적
  Feed URL: https://rss.diffbot.com/rss?url=https://mobile.newsis.com/search.php?kwd%3D%25EC%25A1%25B0%25EC%2588%2598%25EC%259B%2590%2BBOOK%25EB%25B6%2581%25EC%25A0%2581
  Result: 0 posts/year (Status: ERROR, Last: None)
Processing feed 158/1263: 대한민국역사박물관
  Feed URL: https://brunch.co.kr/rss/@@c8wm
  Result: 0 posts/year (Status: OLD, Last: 2022-08-31)
Processing feed 159/1263: KLDP blogs
  Feed URL: http://kldp.org/blog/feed
  Result: 0 posts/year (Status: OLD, Last: 2022-10-12)
Processing feed 160/1263: Geeking with Greg
  Feed URL: http://feeds.feedburner.com/GeekingWithGreg
  Result: 0 posts/year (Status: OLD, Last: 2024-01-12)
Processing feed 161/1263: AlastairC
  Feed URL: https://alastairc.uk/feed/
  Result: 3 posts/year (Status: OK, Last: 2025-11-27)
Processing feed 162/1263: dream catcher
  Feed URL: http://blog.rss.naver.com/sunset0902.xml
  Result: 41 posts/year (Status: OK, Last: 2025-11-20)
Processing feed 163/1263: 박규영_자연의 비경
  Feed URL: http://blog.rss.naver.com/photoky.xml
  Result: 0 posts/year (Status: OLD, Last: 2023-07-14)
Processing feed 164/1263: Dhananjay Kumar
  Feed URL: http://debugmode.net/feed/
  Result: 10 posts/year (Status: OK, Last: 2025-11-08)
Processing feed 165/1263: Kishore Ganesh
  Feed URL: https://kishoreganesh.com/index.xml
  Result: 0 posts/year (Status: OLD, Last: 2024-01-10)
Processing feed 166/1263: OECD.org - United Kingdom
  Feed URL: http://www.oecd.org/RSS_channel/0,3045,en_33873108_33873870_1_1_1_1_1,00.xml
  Result: 0 posts/year (Status: ERROR, Last: None)
Processing feed 167/1263: GYUHANG.NET
  Feed URL: http://gyuhang.net/rss
  Result: 0 posts/year (Status: ERROR, Last: None)
Processing feed 168/1263: 뉴스타파 NEWSTAPA
  Feed URL: http://download.newstapa.org/api/podcast.xml
  Result: 0 posts/year (Status: OLD, Last: 2022-11-07)
Processing feed 169/1263: 이글루스 'IT' 테마 인기글
  Feed URL: http://valley.egloos.com/theme/rss/top/technology
  Result: 0 posts/year (Status: ERROR, Last: None)
Processing feed 170/1263: 이글루스 '뉴스비평' 테마 인기글
  Feed URL: http://valley.egloos.com/theme/rss/top/news
  Result: 0 posts/year (Status: ERROR, Last: None)
Processing feed 171/1263: A guide to mainlining android phones
  Feed URL: https://mainlining.dev/feed/
  Result: 0 posts/year (Status: OLD, Last: 2022-08-06)
Processing feed 172/1263: 에스티마의 인터넷이야기
  Feed URL: http://estima.wordpress.com/feed/
  Result: 0 posts/year (Status: OLD, Last: 2021-08-15)
Processing feed 173/1263: Ed Yong | The Atlantic
  Feed URL: http://www.theatlantic.com/feed/author/ed-yong/
  Result: 0 posts/year (Status: OLD, Last: 2023-07-27)
Processing feed 174/1263: 채널예스 : 음악
  Feed URL: http://ch.yes24.com/feed/column/2163
  Result: 0 posts/year (Status: ERROR, Last: None)
Processing feed 175/1263: Scientific American
  Feed URL: http://rss.sciam.com/sciam/biology
  Result: 0 posts/year (Status: OLD, Last: 2024-03-01)
Processing feed 176/1263: Therocode's blog
  Feed URL: https://blog.therocode.net/feed.xml
  Result: 0 posts/year (Status: OLD, Last: 2020-10-07)
Processing feed 177/1263: 이그잼플
  Feed URL: https://junegunn.kr/feed/
  Result: 0 posts/year (Status: ERROR, Last: None)
Processing feed 178/1263: 내 안의 女神을 깨워라
  Feed URL: http://blog.rss.naver.com/wizaard.xml
  Result: 0 posts/year (Status: OLD, Last: 2021-12-15)
Processing feed 179/1263: 얼리어답터
  Feed URL: http://www.earlyadopter.co.kr/feed
  Result: 0 posts/year (Status: ERROR, Last: None)
Processing feed 180/1263: mattorb
  Feed URL: https://mattorb.com/rss/
  Result: 5 posts/year (Status: OK, Last: 2025-03-14)
Processing feed 181/1263: 감칠맛 나는 글을 쓰고 싶은 공돌이!!!! ㅠ.ㅠ - Kwangswei's life
  Feed URL: http://kwangswei.tistory.com/rss
  Result: 0 posts/year (Status: EMPTY, Last: None)
Processing feed 182/1263: 다시 맑음
  Feed URL: http://blog.rss.naver.com/manpack.xml
  Result: 0 posts/year (Status: OLD, Last: 2022-03-28)
Processing feed 183/1263: Adactio: Articles
  Feed URL: http://adactio.com/articles/rss
  Result: 2 posts/year (Status: OK, Last: 2025-04-27)
Processing feed 184/1263: Essays-Long-Reads - Bicycling
  Feed URL: https://www.bicycling.com/rss/essays-long-reads.xml
  Result: 0 posts/year (Status: EMPTY, Last: None)
Processing feed 185/1263: Blogs from the Natural History Museum
  Feed URL: https://naturalhistorymuseum.blog/feed/
  Result: 0 posts/year (Status: ERROR, Last: None)
Processing feed 186/1263: Gmail Blog
  Feed URL: http://feeds.feedburner.com/OfficialGmailBlog
  Result: 5 posts/year (Status: OK, Last: 2025-09-11)
Processing feed 187/1263: 서성록의 미술이야기
  Feed URL: http://blog.rss.naver.com/seongrok123.xml
  Result: 11 posts/year (Status: OK, Last: 2025-11-11)
Processing feed 188/1263: SpeakOfTheDevrel.Cloud: Doug Sillars
  Feed URL: https://dougsillars.com/feed/
  Result: 1 posts/year (Status: OK, Last: 2025-04-15)
Processing feed 189/1263: atthis.link
  Feed URL: https://atthis.link/rss.xml
  Result: 1 posts/year (Status: OK, Last: 2025-02-20)
Processing feed 190/1263: 뒤죽박죽 별장
  Feed URL: http://blog.daum.net/xml/rss/rockks77
  Result: 0 posts/year (Status: ERROR, Last: None)
Processing feed 191/1263: leah blogs
  Feed URL: http://chneukirchen.org/blog/index.atom
  Result: 4 posts/year (Status: OK, Last: 2025-12-24)
Processing feed 192/1263: Small Steps Blog
  Feed URL: http://feeds.feedburner.com/jooyunghan
  Result: 0 posts/year (Status: OLD, Last: 2012-04-17)
Processing feed 193/1263: Sam Zeloof
  Feed URL: http://sam.zeloof.xyz/feed/
  Result: 0 posts/year (Status: OLD, Last: 2023-03-18)
Processing feed 194/1263: Blog on Dan North &amp; Associates Limited
  Feed URL: https://dannorth.net/blog/index.xml
  Result: 1 posts/year (Status: OK, Last: 2025-02-03)
Processing feed 195/1263: 찐꽝의 映像時代
  Feed URL: http://blog.rss.naver.com/sabyuk1.xml
  Result: 0 posts/year (Status: OLD, Last: 2024-09-10)
Processing feed 196/1263: 피렌체의 식탁
  Feed URL: https://firenzedt.com/feed
  Result: 0 posts/year (Status: ERROR, Last: None)
Processing feed 197/1263: Gwern.net Newsletter
  Feed URL: https://gwern.substack.com/feed
  Result: 0 posts/year (Status: OLD, Last: 2021-06-11)
Processing feed 198/1263: capcold님의 블로그님
  Feed URL: http://capcold.net/blog/feed
  Result: 0 posts/year (Status: OLD, Last: 2021-08-26)
Processing feed 199/1263: 포커스 취재 > 구정은의 세계, 이곳
  Feed URL: https://rss.diffbot.com/rss?url=https://hankookilbo.com/Collect/7885
  Result: 0 posts/year (Status: ERROR, Last: None)
Processing feed 200/1263: Sonar & Radar » Feed
  Feed URL: http://www.demitrio.com/?feed=rss2
  Result: 0 posts/year (Status: ERROR, Last: None)
Processing feed 201/1263: Paged Out! Magazine
  Feed URL: https://pagedout.institute/rss.xml
  Result: 2 posts/year (Status: OK, Last: 2025-10-04)
Processing feed 202/1263: 이글루스 '게임' 테마 인기글
  Feed URL: http://valley.egloos.com/theme/rss/top/game
  Result: 0 posts/year (Status: ERROR, Last: None)
Processing feed 203/1263: IT 기획 연구소
  Feed URL: http://cfs.tistory.com/custom/named/cy/cyslab/rss.xml
  Result: 0 posts/year (Status: ERROR, Last: None)
Processing feed 204/1263: Thoughts From Eric
  Feed URL: http://meyerweb.com/eric/thoughts/rss2/summary
  Result: 10 posts/year (Status: OK, Last: 2025-12-19)
Processing feed 205/1263: Articles — brandur.org
  Feed URL: http://brandur.org/articles.atom
  Result: 0 posts/year (Status: OLD, Last: 2024-05-28)
Processing feed 206/1263: 최규성의 대중문화산책
  Feed URL: http://blog.rss.naver.com/oopldh.xml
  Result: 1 posts/year (Status: OK, Last: 2025-12-02)
Processing feed 207/1263: drublic – Software Architecture - Hans Christian Reinl, Cologne
  Feed URL: https://drublic.de/feed.xml
  Result: 3 posts/year (Status: OK, Last: 2025-12-07)
Processing feed 208/1263: 장작가 연구실
  Feed URL: http://5bpa.blog.me/rss
  Result: 0 posts/year (Status: ERROR, Last: None)
Processing feed 209/1263: National Geographic Photo of the Day
  Feed URL: http://www.nationalgeographic.com/rss/photography/photo-of-the-day
  Result: 0 posts/year (Status: ERROR, Last: None)
Processing feed 210/1263: DBMS Musings
  Feed URL: http://dbmsmusings.blogspot.com/feeds/posts/default
  Result: 0 posts/year (Status: OLD, Last: 2021-03-25)
Processing feed 211/1263: foobartel.com :: All Posts
  Feed URL: https://foobartel.com/feed
  Result: 0 posts/year (Status: OLD, Last: 2023-11-30)
Processing feed 212/1263: Oxford English Dictionary
  Feed URL: http://www.oed.com/rss.xml
  Result: 0 posts/year (Status: ERROR, Last: None)
Processing feed 213/1263: 꽃이야기
  Feed URL: https://kill-the-newsletter.com/feeds/q81twzoano4wdptt.xml
  Result: 16 posts/year (Status: OK, Last: 2025-08-30)
Processing feed 214/1263: Evil Mad Scientist Laboratories
  Feed URL: http://www.evilmadscientist.com/backend/geeklog.rss
  Result: 1 posts/year (Status: OK, Last: 2025-10-14)
Processing feed 215/1263: The Verge - Buying Guide Posts
  Feed URL: http://www.theverge.com/this-is-my-next/rss/index.xml
  Result: 0 posts/year (Status: ERROR, Last: None)
Processing feed 216/1263: 이글루스 '만화' 테마 인기글
  Feed URL: http://valley.egloos.com/theme/rss/top/comic
  Result: 0 posts/year (Status: ERROR, Last: None)
Processing feed 217/1263: a spark in your veins
  Feed URL: https://e-shootershill.co.uk/feed/
  Result: 0 posts/year (Status: OLD, Last: 2020-10-20)
Processing feed 218/1263: 안단테의 들꽃산책
  Feed URL: http://blog.rss.naver.com/dhlee05
  Result: 0 posts/year (Status: OLD, Last: 2023-04-11)
Processing feed 219/1263: 부크의 아이템창고
  Feed URL: http://blog.rss.naver.com/spd33.xml
  Result: 0 posts/year (Status: OLD, Last: 2017-08-15)
Processing feed 220/1263: Foresight Institute
  Feed URL: http://www.foresight.org/nanodot/wp-rss.php
  Result: 0 posts/year (Status: EMPTY, Last: None)
Processing feed 221/1263: xmonad - the tiling window manager that rocks
  Feed URL: https://xmonad.org/feed.xml
  Result: 0 posts/year (Status: OLD, Last: 2024-08-20)
Processing feed 222/1263: 여행,느낌 그리고 사진
  Feed URL: http://blog.rss.naver.com/dghahn.xml
  Result: 0 posts/year (Status: OLD, Last: 2022-10-03)
Processing feed 223/1263: Coding Horror
  Feed URL: http://feeds.feedburner.com/codinghorror/
  Result: 3 posts/year (Status: OK, Last: 2025-03-20)
Processing feed 224/1263: fpunfold
  Feed URL: http://fpunfold.com/feed.xml
  Result: 0 posts/year (Status: ERROR, Last: None)
Processing feed 225/1263: TEDxSeoul - 번역 개선하기
  Feed URL: http://www.tedxseoul.com/xe/talks/atom
  Result: 0 posts/year (Status: ERROR, Last: None)
Processing feed 226/1263: Applied Cartography
  Feed URL: https://www.applied-cartography.com/rss.xml
  Result: 0 posts/year (Status: ERROR, Last: None)
Processing feed 227/1263: [김삼웅의 인물열전] 반민특위 위원장 김상덕 평전
  Feed URL: http://blog.ohmynews.com/kimsamwoong/rss
  Result: 0 posts/year (Status: ERROR, Last: None)
Processing feed 228/1263: ★여행은 떠나는 자의 몫★
  Feed URL: http://blog.rss.naver.com/mis71.xml
  Result: 0 posts/year (Status: OLD, Last: 2021-07-19)
Processing feed 229/1263: endtimes.dev
  Feed URL: https://endtimes.dev/feed.xml
  Result: 0 posts/year (Status: OLD, Last: 2023-11-25)
Processing feed 230/1263: Byte Cellar
  Feed URL: http://www.bytecellar.com/feed/
  Result: 0 posts/year (Status: OLD, Last: 2024-12-22)
Processing feed 231/1263: 클리앙 : 전기자전거당
  Feed URL: https://rss.diffbot.com/rss?url=https://www.clien.net/service/board/cm_ebicycle
  Result: 0 posts/year (Status: ERROR, Last: None)
Processing feed 232/1263: 초록섬
  Feed URL: http://blog.rss.naver.com/77attic.xml
  Result: 50 posts/year (Status: OK, Last: 2026-01-02)
Processing feed 233/1263: 토토로의 여행공작소
  Feed URL: http://blog.rss.naver.com/babtol2000.xml
  Result: 10 posts/year (Status: OK, Last: 2025-12-20)
Processing feed 234/1263: The Public Domain Review
  Feed URL: http://publicdomainreview.org/feed/
  Result: 100 posts/year (Status: OK, Last: 2026-01-01)
Processing feed 235/1263: Insights | Expert Software Development Articles & Resources
  Feed URL: https://rss.diffbot.com/rss?url=https://www.stackbuilders.com/blog/
  Result: 0 posts/year (Status: ERROR, Last: None)
