Feedly Feed Analysis Log - 2026-01-03 16:29:49
User request: Parse OPML file and analyze feed frequencies
Input file: ./feedly.opml
Output file: ./feedly_feeds.jsonl
============================================================

Processing feed 1/445: HowToCreate - Opera
  Feed URL: http://www.howtocreate.co.uk/operaStuff/operaStuff.xml
  Result: 0 posts/year (Status: OLD, Last: 2009-05-22)
Processing feed 2/445: 주요기사 : 뉴스 : 한겨레 뉴스 - 인터넷한겨레
  Feed URL: http://www.hani.co.kr/rss/lead/
  Result: 0 posts/year (Status: ERROR, Last: None)
Processing feed 3/445: 채널예스 : 영화
  Feed URL: http://ch.yes24.com/feed/column/2172
  Result: 0 posts/year (Status: ERROR, Last: None)
Processing feed 4/445: 채널예스 : 책
  Feed URL: http://ch.yes24.com/feed/column/2162
  Result: 0 posts/year (Status: ERROR, Last: None)
Processing feed 5/445: 채널예스 : 만나고 싶었어요!
  Feed URL: http://ch.yes24.com/feed/columns/1958
  Result: 0 posts/year (Status: ERROR, Last: None)
Processing feed 6/445: 채널예스 : 작가와의 만남
  Feed URL: http://ch.yes24.com/feed/columns/1959
  Result: 0 posts/year (Status: ERROR, Last: None)
Processing feed 7/445: 채널예스 : 특집 기획
  Feed URL: http://ch.yes24.com/feed/column/2184
  Result: 0 posts/year (Status: ERROR, Last: None)
Processing feed 8/445: 채널예스 : 여행/취미
  Feed URL: http://ch.yes24.com/feed/column/2168
  Result: 0 posts/year (Status: ERROR, Last: None)
Processing feed 9/445: London Review of Books
  Feed URL: http://www.lrb.co.uk/homerss.xml
  Result: 0 posts/year (Status: ERROR, Last: None)
Processing feed 10/445: 채널예스 : 음악
  Feed URL: http://ch.yes24.com/feed/column/2163
  Result: 0 posts/year (Status: ERROR, Last: None)
Processing feed 11/445: 채널예스 : 주목, 이주의 신간
  Feed URL: http://ch.yes24.com/feed/column/2177
  Result: 0 posts/year (Status: ERROR, Last: None)
Processing feed 12/445: 채널예스 : 대중문화
  Feed URL: http://ch.yes24.com/feed/column/2165
